nohup: ignoring input


        *** GPGPU-Sim Simulator Version 4.2.0  [build gpgpu-sim_git-commit-_modified_0.0] ***


GPGPU-Sim PTX: simulation mode 0 (can change with PTX_SIM_MODE_FUNC environment variable:
               1=functional simulation only, 0=detailed performance simulator)
GPGPU-Sim PTX: overriding embedded ptx with ptx file (PTX_SIM_USE_PTX_FILE is set)
GPGPU-Sim: Configuration options:

-save_embedded_ptx                      0 # saves ptx files embedded in binary as <n>.ptx
-keep                                   0 # keep intermediate files created by GPGPU-Sim when interfacing with external programs
-gpgpu_ptx_save_converted_ptxplus                    0 # Saved converted ptxplus to a file
-gpgpu_occupancy_sm_number                   75 # The SM number to pass to ptxas when getting register usage for computing GPU occupancy. This parameter is required in the config.
-ptx_opcode_latency_int           4,4,4,4,21 # Opcode latencies for integers <ADD,MAX,MUL,MAD,DIV,SHFL>Default 1,1,19,25,145,32
-ptx_opcode_latency_fp           4,4,4,4,39 # Opcode latencies for single precision floating points <ADD,MAX,MUL,MAD,DIV>Default 1,1,1,1,30
-ptx_opcode_latency_dp      64,64,64,64,330 # Opcode latencies for double precision floating points <ADD,MAX,MUL,MAD,DIV>Default 8,8,8,8,335
-ptx_opcode_latency_sfu                   21 # Opcode latencies for SFU instructionsDefault 8
-ptx_opcode_latency_tesnor                   64 # Opcode latencies for Tensor instructionsDefault 64
-ptx_opcode_initiation_int            2,2,2,2,2 # Opcode initiation intervals for integers <ADD,MAX,MUL,MAD,DIV,SHFL>Default 1,1,4,4,32,4
-ptx_opcode_initiation_fp            2,2,2,2,4 # Opcode initiation intervals for single precision floating points <ADD,MAX,MUL,MAD,DIV>Default 1,1,1,1,5
-ptx_opcode_initiation_dp      64,64,64,64,130 # Opcode initiation intervals for double precision floating points <ADD,MAX,MUL,MAD,DIV>Default 8,8,8,8,130
-ptx_opcode_initiation_sfu                    8 # Opcode initiation intervals for sfu instructionsDefault 8
-ptx_opcode_initiation_tensor                   64 # Opcode initiation intervals for tensor instructionsDefault 64
-cdp_latency         7200,8000,100,12000,1600 # CDP API latency <cudaStreamCreateWithFlags, cudaGetParameterBufferV2_init_perWarp, cudaGetParameterBufferV2_perKernel, cudaLaunchDeviceV2_init_perWarp, cudaLaunchDevicV2_perKernel>Default 7200,8000,100,12000,1600
-network_mode                           2 # Interconnection network mode
-inter_config_file                   mesh # Interconnection network config file
-icnt_in_buffer_limit                  512 # in_buffer_limit
-icnt_out_buffer_limit                  512 # out_buffer_limit
-icnt_subnets                           2 # subnets
-icnt_arbiter_algo                      1 # arbiter_algo
-icnt_verbose                           0 # inct_verbose
-icnt_grant_cycles                      1 # grant_cycles
-gpgpu_ptx_use_cuobjdump                    1 # Use cuobjdump to extract ptx and sass from binaries
-gpgpu_experimental_lib_support                    0 # Try to extract code from cuda libraries [Broken because of unknown cudaGetExportTable]
-checkpoint_option                      0 #  checkpointing flag (0 = no checkpoint)
-checkpoint_kernel                      1 #  checkpointing during execution of which kernel (1- 1st kernel)
-checkpoint_CTA                         0 #  checkpointing after # of CTA (< less than total CTA)
-resume_option                          0 #  resume flag (0 = no resume)
-resume_kernel                          0 #  Resume from which kernel (1= 1st kernel)
-resume_CTA                             0 #  resume from which CTA 
-checkpoint_CTA_t                       0 #  resume from which CTA 
-checkpoint_insn_Y                      0 #  resume from which CTA 
-gpgpu_ptx_convert_to_ptxplus                    0 # Convert SASS (native ISA) to ptxplus and run ptxplus
-gpgpu_ptx_force_max_capability                   75 # Force maximum compute capability
-gpgpu_ptx_inst_debug_to_file                    0 # Dump executed instructions' debug information to file
-gpgpu_ptx_inst_debug_file       inst_debug.txt # Executed instructions' debug output file
-gpgpu_ptx_inst_debug_thread_uid                    1 # Thread UID for executed instructions' debug output
-gpgpu_simd_model                       1 # 1 = post-dominator
-gpgpu_shader_core_pipeline              1024:32 # shader core pipeline config, i.e., {<nthread>:<warpsize>}
-gpgpu_tex_cache:l1  N:4:128:256,L:R:m:N:L,T:512:8,128:2 # per-shader L1 texture cache  (READ-ONLY) config  {<nsets>:<bsize>:<assoc>,<rep>:<wr>:<alloc>:<wr_alloc>,<mshr>:<N>:<merge>,<mq>:<rf>}
-gpgpu_const_cache:l1 N:128:64:8,L:R:f:N:L,S:2:64,4 # per-shader L1 constant memory cache  (READ-ONLY) config  {<nsets>:<bsize>:<assoc>,<rep>:<wr>:<alloc>:<wr_alloc>,<mshr>:<N>:<merge>,<mq>} 
-gpgpu_cache:il1     N:64:128:16,L:R:f:N:L,S:2:48,4 # shader L1 instruction cache config  {<nsets>:<bsize>:<assoc>,<rep>:<wr>:<alloc>:<wr_alloc>,<mshr>:<N>:<merge>,<mq>} 
-gpgpu_cache:dl1     S:4:128:64,L:T:m:L:L,A:256:32,16:0,32 # per-shader L1 data cache config  {<nsets>:<bsize>:<assoc>,<rep>:<wr>:<alloc>:<wr_alloc>,<mshr>:<N>:<merge>,<mq> | none}
-gpgpu_l1_cache_write_ratio                   25 # L1D write ratio
-gpgpu_l1_banks                         4 # The number of L1 cache banks
-gpgpu_l1_banks_byte_interleaving                   32 # l1 banks byte interleaving granularity
-gpgpu_l1_banks_hashing_function                    0 # l1 banks hashing function
-gpgpu_l1_latency                      32 # L1 Hit Latency
-gpgpu_smem_latency                    30 # smem Latency
-gpgpu_cache:dl1PrefL1                 none # per-shader L1 data cache config  {<nsets>:<bsize>:<assoc>,<rep>:<wr>:<alloc>:<wr_alloc>,<mshr>:<N>:<merge>,<mq> | none}
-gpgpu_cache:dl1PrefShared                 none # per-shader L1 data cache config  {<nsets>:<bsize>:<assoc>,<rep>:<wr>:<alloc>:<wr_alloc>,<mshr>:<N>:<merge>,<mq> | none}
-gpgpu_gmem_skip_L1D                    0 # global memory access skip L1D cache (implements -Xptxas -dlcm=cg, default=no skip)
-gpgpu_perfect_mem                      0 # enable perfect memory mode (no cache miss)
-n_regfile_gating_group                    4 # group of lanes that should be read/written together)
-gpgpu_clock_gated_reg_file                    0 # enable clock gated reg file for power calculations
-gpgpu_clock_gated_lanes                    0 # enable clock gated lanes for power calculations
-gpgpu_shader_registers                65536 # Number of registers per shader core. Limits number of concurrent CTAs. (default 8192)
-gpgpu_registers_per_block                65536 # Maximum number of registers per CTA. (default 8192)
-gpgpu_ignore_resources_limitation                    0 # gpgpu_ignore_resources_limitation (default 0)
-gpgpu_shader_cta                      16 # Maximum number of concurrent CTAs in shader (default 32)
-gpgpu_num_cta_barriers                   16 # Maximum number of named barriers per CTA (default 16)
-gpgpu_n_clusters                       1 # number of processing clusters
-gpgpu_n_cores_per_cluster                    1 # number of simd cores per cluster
-gpgpu_n_cluster_ejection_buffer_size                   32 # number of packets in ejection buffer
-gpgpu_n_ldst_response_buffer_size                    2 # number of response packets in ld/st unit ejection buffer
-gpgpu_shmem_per_block                49152 # Size of shared memory per thread block or CTA (default 48kB)
-gpgpu_shmem_size                   65536 # Size of shared memory per shader core (default 16kB)
-gpgpu_shmem_option                 32,64 # Option list of shared memory sizes
-gpgpu_unified_l1d_size                   96 # Size of unified data cache(L1D + shared memory) in KB
-gpgpu_adaptive_cache_config                    1 # adaptive_cache_config
-gpgpu_shmem_sizeDefault                65536 # Size of shared memory per shader core (default 16kB)
-gpgpu_shmem_size_PrefL1                16384 # Size of shared memory per shader core (default 16kB)
-gpgpu_shmem_size_PrefShared                16384 # Size of shared memory per shader core (default 16kB)
-gpgpu_shmem_num_banks                   32 # Number of banks in the shared memory in each shader core (default 16)
-gpgpu_shmem_limited_broadcast                    0 # Limit shared memory to do one broadcast per cycle (default on)
-gpgpu_shmem_warp_parts                    1 # Number of portions a warp is divided into for shared memory bank conflict check 
-gpgpu_mem_unit_ports                    1 # The number of memory transactions allowed per core cycle
-gpgpu_shmem_warp_parts                    1 # Number of portions a warp is divided into for shared memory bank conflict check 
-gpgpu_warpdistro_shader                   -1 # Specify which shader core to collect the warp size distribution from
-gpgpu_warp_issue_shader                    0 # Specify which shader core to collect the warp issue distribution from
-gpgpu_local_mem_map                    1 # Mapping from local memory space address to simulated GPU physical address space (default = enabled)
-gpgpu_num_reg_banks                    8 # Number of register banks (default = 8)
-gpgpu_reg_bank_use_warp_id                    0 # Use warp ID in mapping registers to banks (default = off)
-gpgpu_sub_core_model                    1 # Sub Core Volta/Pascal model (default = off)
-gpgpu_enable_specialized_operand_collector                    0 # enable_specialized_operand_collector
-gpgpu_operand_collector_num_units_sp                    4 # number of collector units (default = 4)
-gpgpu_operand_collector_num_units_dp                    0 # number of collector units (default = 0)
-gpgpu_operand_collector_num_units_sfu                    4 # number of collector units (default = 4)
-gpgpu_operand_collector_num_units_int                    0 # number of collector units (default = 0)
-gpgpu_operand_collector_num_units_tensor_core                    4 # number of collector units (default = 4)
-gpgpu_operand_collector_num_units_mem                    2 # number of collector units (default = 2)
-gpgpu_operand_collector_num_units_gen                    8 # number of collector units (default = 0)
-gpgpu_operand_collector_num_in_ports_sp                    1 # number of collector unit in ports (default = 1)
-gpgpu_operand_collector_num_in_ports_dp                    0 # number of collector unit in ports (default = 0)
-gpgpu_operand_collector_num_in_ports_sfu                    1 # number of collector unit in ports (default = 1)
-gpgpu_operand_collector_num_in_ports_int                    0 # number of collector unit in ports (default = 0)
-gpgpu_operand_collector_num_in_ports_tensor_core                    1 # number of collector unit in ports (default = 1)
-gpgpu_operand_collector_num_in_ports_mem                    1 # number of collector unit in ports (default = 1)
-gpgpu_operand_collector_num_in_ports_gen                    8 # number of collector unit in ports (default = 0)
-gpgpu_operand_collector_num_out_ports_sp                    1 # number of collector unit in ports (default = 1)
-gpgpu_operand_collector_num_out_ports_dp                    0 # number of collector unit in ports (default = 0)
-gpgpu_operand_collector_num_out_ports_sfu                    1 # number of collector unit in ports (default = 1)
-gpgpu_operand_collector_num_out_ports_int                    0 # number of collector unit in ports (default = 0)
-gpgpu_operand_collector_num_out_ports_tensor_core                    1 # number of collector unit in ports (default = 1)
-gpgpu_operand_collector_num_out_ports_mem                    1 # number of collector unit in ports (default = 1)
-gpgpu_operand_collector_num_out_ports_gen                    8 # number of collector unit in ports (default = 0)
-gpgpu_coalesce_arch                   75 # Coalescing arch (GT200 = 13, Fermi = 20)
-gpgpu_num_sched_per_core                    4 # Number of warp schedulers per core
-gpgpu_max_insn_issue_per_warp                    1 # Max number of instructions that can be issued per warp in one cycle by scheduler (either 1 or 2)
-gpgpu_dual_issue_diff_exec_units                    1 # should dual issue use two different execution unit resources (Default = 1)
-gpgpu_simt_core_sim_order                    1 # Select the simulation order of cores in a cluster (0=Fix, 1=Round-Robin)
-gpgpu_pipeline_widths 4,4,4,4,4,4,4,4,4,4,8,4,4 # Pipeline widths ID_OC_SP,ID_OC_DP,ID_OC_INT,ID_OC_SFU,ID_OC_MEM,OC_EX_SP,OC_EX_DP,OC_EX_INT,OC_EX_SFU,OC_EX_MEM,EX_WB,ID_OC_TENSOR_CORE,OC_EX_TENSOR_CORE
-gpgpu_tensor_core_avail                    1 # Tensor Core Available (default=0)
-gpgpu_num_sp_units                     4 # Number of SP units (default=1)
-gpgpu_num_dp_units                     4 # Number of DP units (default=0)
-gpgpu_num_int_units                    4 # Number of INT units (default=0)
-gpgpu_num_sfu_units                    4 # Number of SF units (default=1)
-gpgpu_num_tensor_core_units                    4 # Number of tensor_core units (default=1)
-gpgpu_num_mem_units                    1 # Number if ldst units (default=1) WARNING: not hooked up to anything
-gpgpu_scheduler                      lrr # Scheduler configuration: < lrr | gto | two_level_active > If two_level_active:<num_active_warps>:<inner_prioritization>:<outer_prioritization>For complete list of prioritization values see shader.h enum scheduler_prioritization_typeDefault: gto
-gpgpu_concurrent_kernel_sm                    0 # Support concurrent kernels on a SM (default = disabled)
-gpgpu_perfect_inst_const_cache                    1 # perfect inst and const cache mode, so all inst and const hits in the cache(default = disabled)
-gpgpu_inst_fetch_throughput                    4 # the number of fetched intruction per warp each cycle
-gpgpu_reg_file_port_throughput                    2 # the number ports of the register file
-specialized_unit_1         0,4,4,4,4,BRA # specialized unit config {<enabled>,<num_units>:<latency>:<initiation>,<ID_OC_SPEC>:<OC_EX_SPEC>,<NAME>}
-specialized_unit_2         0,4,4,4,4,BRA # specialized unit config {<enabled>,<num_units>:<latency>:<initiation>,<ID_OC_SPEC>:<OC_EX_SPEC>,<NAME>}
-specialized_unit_3         0,4,4,4,4,BRA # specialized unit config {<enabled>,<num_units>:<latency>:<initiation>,<ID_OC_SPEC>:<OC_EX_SPEC>,<NAME>}
-specialized_unit_4         0,4,4,4,4,BRA # specialized unit config {<enabled>,<num_units>:<latency>:<initiation>,<ID_OC_SPEC>:<OC_EX_SPEC>,<NAME>}
-specialized_unit_5         0,4,4,4,4,BRA # specialized unit config {<enabled>,<num_units>:<latency>:<initiation>,<ID_OC_SPEC>:<OC_EX_SPEC>,<NAME>}
-specialized_unit_6         0,4,4,4,4,BRA # specialized unit config {<enabled>,<num_units>:<latency>:<initiation>,<ID_OC_SPEC>:<OC_EX_SPEC>,<NAME>}
-specialized_unit_7         0,4,4,4,4,BRA # specialized unit config {<enabled>,<num_units>:<latency>:<initiation>,<ID_OC_SPEC>:<OC_EX_SPEC>,<NAME>}
-specialized_unit_8         0,4,4,4,4,BRA # specialized unit config {<enabled>,<num_units>:<latency>:<initiation>,<ID_OC_SPEC>:<OC_EX_SPEC>,<NAME>}
-gpgpu_perf_sim_memcpy                    1 # Fill the L2 cache on memcpy
-gpgpu_simple_dram_model                    0 # simple_dram_model with fixed latency and BW
-gpgpu_dram_scheduler                    1 # 0 = fifo, 1 = FR-FCFS (defaul)
-gpgpu_dram_partition_queues          64:64:64:64 # i2$:$2d:d2$:$2i
-l2_ideal                               0 # Use a ideal L2 cache that always hit
-gpgpu_cache:dl2     S:64:128:16,L:B:m:L:P,A:192:4,32:0,32 # unified banked L2 data cache config  {<nsets>:<bsize>:<assoc>,<rep>:<wr>:<alloc>:<wr_alloc>,<mshr>:<N>:<merge>,<mq>}
-gpgpu_cache:dl2_texture_only                    0 # L2 cache used for texture only
-gpgpu_n_mem                           12 # number of memory modules (e.g. memory controllers) in gpu
-gpgpu_n_sub_partition_per_mchannel                    2 # number of memory subpartition in each memory module
-gpgpu_n_mem_per_ctrlr                    1 # number of memory chips per memory controller
-gpgpu_memlatency_stat                   14 # track and display latency statistics 0x2 enables MC, 0x4 enables queue logs
-gpgpu_frfcfs_dram_sched_queue_size                   64 # 0 = unlimited (default); # entries per chip
-gpgpu_dram_return_queue_size                  192 # 0 = unlimited (default); # entries per chip
-gpgpu_dram_buswidth                    2 # default = 4 bytes (8 bytes per cycle at DDR)
-gpgpu_dram_burst_length                   16 # Burst length of each DRAM request (default = 4 data bus cycle)
-dram_data_command_freq_ratio                    4 # Frequency ratio between DRAM data bus and command bus (default = 2 times, i.e. DDR)
-gpgpu_dram_timing_opt nbk=16:CCD=4:RRD=12:RCD=24:RAS=55:RP=24:RC=78:CL=24:WL=8:CDLR=10:WR=24:nbkgrp=4:CCDL=6:RTPL=4 # DRAM timing parameters = {nbk:tCCD:tRRD:tRCD:tRAS:tRP:tRC:CL:WL:tCDLR:tWR:nbkgrp:tCCDL:tRTPL}
-gpgpu_l2_rop_latency                  194 # ROP queue latency (default 85)
-dram_latency                          96 # DRAM latency (default 30)
-dram_dual_bus_interface                    0 # dual_bus_interface (default = 0) 
-dram_bnk_indexing_policy                    0 # dram_bnk_indexing_policy (0 = normal indexing, 1 = Xoring with the higher bits) (Default = 0)
-dram_bnkgrp_indexing_policy                    1 # dram_bnkgrp_indexing_policy (0 = take higher bits, 1 = take lower bits) (Default = 0)
-dram_seperate_write_queue_enable                    0 # Seperate_Write_Queue_Enable
-dram_write_queue_size             32:28:16 # Write_Queue_Size
-dram_elimnate_rw_turnaround                    0 # elimnate_rw_turnaround i.e set tWTR and tRTW = 0
-icnt_flit_size                        40 # icnt_flit_size
-gpgpu_mem_addr_mapping dramid@8;00000000.00000000.00000000.00000000.0000RRRR.RRRRRRRR.RBBBCCCC.BCCSSSSS # mapping memory address to dram model {dramid@<start bit>;<memory address map>}
-gpgpu_mem_addr_test                    0 # run sweep test to check address mapping for aliased address
-gpgpu_mem_address_mask                    1 # 0 = old addressing mask, 1 = new addressing mask, 2 = new add. mask + flipped bank sel and chip sel bits
-gpgpu_memory_partition_indexing                    0 # 0 = no indexing, 1 = bitwise xoring, 2 = IPoly, 3 = custom indexing
-accelwattch_xml_file accelwattch_sass_sim.xml # AccelWattch XML file
-power_simulation_enabled                    0 # Turn on power simulator (1=On, 0=Off)
-power_per_cycle_dump                    0 # Dump detailed power output each cycle
-hw_perf_file_name            hw_perf.csv # Hardware Performance Statistics file
-hw_perf_bench_name                       # Kernel Name in Hardware Performance Statistics file
-power_simulation_mode                    0 # Switch performance counter input for power simulation (0=Sim, 1=HW, 2=HW-Sim Hybrid)
-dvfs_enabled                           0 # Turn on DVFS for power model
-aggregate_power_stats                    0 # Accumulate power across all kernels
-accelwattch_hybrid_perfsim_L1_RH                    0 # Get L1 Read Hits for Accelwattch-Hybrid from Accel-Sim
-accelwattch_hybrid_perfsim_L1_RM                    0 # Get L1 Read Misses for Accelwattch-Hybrid from Accel-Sim
-accelwattch_hybrid_perfsim_L1_WH                    0 # Get L1 Write Hits for Accelwattch-Hybrid from Accel-Sim
-accelwattch_hybrid_perfsim_L1_WM                    0 # Get L1 Write Misses for Accelwattch-Hybrid from Accel-Sim
-accelwattch_hybrid_perfsim_L2_RH                    0 # Get L2 Read Hits for Accelwattch-Hybrid from Accel-Sim
-accelwattch_hybrid_perfsim_L2_RM                    0 # Get L2 Read Misses for Accelwattch-Hybrid from Accel-Sim
-accelwattch_hybrid_perfsim_L2_WH                    0 # Get L2 Write Hits for Accelwattch-Hybrid from Accel-Sim
-accelwattch_hybrid_perfsim_L2_WM                    0 # Get L2 Write Misses for Accelwattch-Hybrid from Accel-Sim
-accelwattch_hybrid_perfsim_CC_ACC                    0 # Get Constant Cache Acesses for Accelwattch-Hybrid from Accel-Sim
-accelwattch_hybrid_perfsim_SHARED_ACC                    0 # Get Shared Memory Acesses for Accelwattch-Hybrid from Accel-Sim
-accelwattch_hybrid_perfsim_DRAM_RD                    0 # Get DRAM Reads for Accelwattch-Hybrid from Accel-Sim
-accelwattch_hybrid_perfsim_DRAM_WR                    0 # Get DRAM Writes for Accelwattch-Hybrid from Accel-Sim
-accelwattch_hybrid_perfsim_NOC                    0 # Get Interconnect Acesses for Accelwattch-Hybrid from Accel-Sim
-accelwattch_hybrid_perfsim_PIPE_DUTY                    0 # Get Pipeline Duty Cycle Acesses for Accelwattch-Hybrid from Accel-Sim
-accelwattch_hybrid_perfsim_NUM_SM_IDLE                    0 # Get Number of Idle SMs for Accelwattch-Hybrid from Accel-Sim
-accelwattch_hybrid_perfsim_CYCLES                    0 # Get Executed Cycles for Accelwattch-Hybrid from Accel-Sim
-accelwattch_hybrid_perfsim_VOLTAGE                    0 # Get Chip Voltage for Accelwattch-Hybrid from Accel-Sim
-power_trace_enabled                    0 # produce a file for the power trace (1=On, 0=Off)
-power_trace_zlevel                     6 # Compression level of the power trace output log (0=no comp, 9=highest)
-steady_power_levels_enabled                    0 # produce a file for the steady power levels (1=On, 0=Off)
-steady_state_definition                  8:4 # allowed deviation:number of samples
-gpgpu_max_cycle                        0 # terminates gpu simulation early (0 = no limit)
-gpgpu_max_insn                         0 # terminates gpu simulation early (0 = no limit)
-gpgpu_max_cta                          0 # terminates gpu simulation early (0 = no limit)
-gpgpu_max_completed_cta                    0 # terminates gpu simulation early (0 = no limit)
-gpgpu_runtime_stat                   500 # display runtime statistics such as dram utilization {<freq>:<flag>}
-liveness_message_freq                    1 # Minimum number of seconds between simulation liveness messages (0 = always print)
-gpgpu_compute_capability_major                    7 # Major compute capability version number
-gpgpu_compute_capability_minor                    5 # Minor compute capability version number
-gpgpu_flush_l1_cache                    1 # Flush L1 cache at the end of each kernel call
-gpgpu_flush_l2_cache                    0 # Flush L2 cache at the end of each kernel call
-gpgpu_deadlock_detect                    1 # Stop the simulation at deadlock (1=on (default), 0=off)
-gpgpu_ptx_instruction_classification                    0 # if enabled will classify ptx instruction types per kernel (Max 255 kernels now)
-gpgpu_ptx_sim_mode                     0 # Select between Performance (default) or Functional simulation (1)
-gpgpu_clock_domains 1365:1365:1365:3500.5 # Clock Domain Frequencies in MhZ {<Core Clock>:<ICNT Clock>:<L2 Clock>:<DRAM Clock>}
-gpgpu_max_concurrent_kernel                  128 # maximum kernels that can run concurrently on GPU, set this value according to max resident grids for your compute capability
-gpgpu_cflog_interval                    0 # Interval between each snapshot in control flow logger
-visualizer_enabled                     0 # Turn on visualizer output (1=On, 0=Off)
-visualizer_outputfile                 NULL # Specifies the output log file for visualizer
-visualizer_zlevel                      6 # Compression level of the visualizer output log (0=no comp, 9=highest)
-gpgpu_stack_size_limit                 1024 # GPU thread stack size
-gpgpu_heap_size_limit              8388608 # GPU malloc heap size 
-gpgpu_runtime_sync_depth_limit                    2 # GPU device runtime synchronize depth
-gpgpu_runtime_pending_launch_count_limit                 2048 # GPU device runtime pending launch count
-trace_enabled                          0 # Turn on traces
-trace_components                    none # comma seperated list of traces to enable. Complete list found in trace_streams.tup. Default none
-trace_sampling_core                    0 # The core which is printed using CORE_DPRINTF. Default 0
-trace_sampling_memory_partition                   -1 # The memory partition which is printed using MEMPART_DPRINTF. Default -1 (i.e. all)
-enable_ptx_file_line_stats                    1 # Turn on PTX source line statistic profiling. (1 = On)
-ptx_line_stats_filename gpgpu_inst_stats.txt # Output file for PTX source line statistics.
-gpgpu_kernel_launch_latency                 5000 # Kernel launch latency in cycles. Default: 0
-gpgpu_cdp_enabled                      0 # Turn on CDP
-gpgpu_TB_launch_latency                    0 # thread block launch latency in cycles. Default: 0
DRAM Timing Options:
nbk                                    16 # number of banks
CCD                                     4 # column to column delay
RRD                                    12 # minimal delay between activation of rows in dbfcb4b395504673fa7a3c5ce50bbaa92  /mnt/sda/2022-0526/home/gtyinstinct/CUDA_code/L2-sim/bin/2Dentropy
Extracting PTX file and ptxas options    1: 2Dentropy.1.sm_70.ptx -arch=sm_70
ifferent banks
RCD                                    24 # row to column delay
RAS                                    55 # time needed to activate row
RP                                     24 # time needed to precharge (deactivate) row
RC                                     78 # row cycle time
CDLR                                   10 # switching from write to read (changes tWTR)
WR                                     24 # last data-in to row precharge
CL                                     24 # CAS latency
WL                                      8 # Write latency
nbkgrp                                  4 # number of bank groups
CCDL                                    6 # column to column delay between accesses to different bank groups
RTPL                                    4 # read to precharge delay between accesses to different bank groups
Total number of memory sub partition = 24
addr_dec_mask[CHIP]  = 0000000000000000 	high:64 low:0
addr_dec_mask[BK]    = 0000000000007080 	high:15 low:7
addr_dec_mask[ROW]   = 000000000fff8000 	high:28 low:15
addr_dec_mask[COL]   = 0000000000000f7f 	high:12 low:0
addr_dec_mask[BURST] = 000000000000001f 	high:5 low:0
sub_partition_id_mask = 0000000000000080
GPGPU-Sim uArch: clock freqs: 1365000000.000000:1365000000.000000:1365000000.000000:3500500000.000000
GPGPU-Sim uArch: clock periods: 0.00000000073260073260:0.00000000073260073260:0.00000000073260073260:0.00000000028567347522
*** Initializing Memory Statistics ***
GPGPU-Sim uArch: performance model initialization complete.
self exe links to: /mnt/sda/2022-0526/home/gtyinstinct/CUDA_code/L2-sim/bin/2Dentropy
self exe links to: /mnt/sda/2022-0526/home/gtyinstinct/CUDA_code/L2-sim/bin/2Dentropy
11.0
GPGPU-Sim PTX: __cudaRegisterFatBinary, fat_cubin_handle = 1, filename=default
self exe links to: /mnt/sda/2022-0526/home/gtyinstinct/CUDA_code/L2-sim/bin/2Dentropy
Running md5sum using "md5sum /mnt/sda/2022-0526/home/gtyinstinct/CUDA_code/L2-sim/bin/2Dentropy "
self exe links to: /mnt/sda/2022-0526/home/gtyinstinct/CUDA_code/L2-sim/bin/2Dentropy
Extracting specific PTX file named 2Dentropy.1.sm_70.ptx 
GPGPU-Sim PTX: __cudaRegisterFunction _Z26entropy_with_low_occupancyILi128EhfhLi256ELi2EEviiPKT0_PT1_ : hostFun 0x0x401ced, fat_cubin_handle = 1
GPGPU-Sim PTX: Parsing 2Dentropy.1.sm_70.ptx
GPGPU-Sim PTX: allocating stack frame region for .local "__local_depot0" from 0x0 to 0x100
GPGPU-Sim PTX: allocating shared region for "_ZZ29entropy_with_register_spilingILi128EhfhLi256ELi2EEviiPKT0_PT1_E5plogp" from 0x0 to 0x68 (shared memory space)
GPGPU-Sim PTX: Warning -- ignoring pragma 'nounroll'
GPGPU-Sim PTX: instruction assembly for function '_Z29entropy_with_register_spilingILi128EhfhLi256ELi2EEviiPKT0_PT1_'...   done.
GPGPU-Sim PTX: allocating shared region for "_ZZ26entropy_with_low_occupancyILi128EhfhLi256ELi2EEviiPKT0_PT1_E3cnt" from 0x0 to 0x8000 (shared memory space)
GPGPU-Sim PTX: allocating shared region for "_ZZ26entropy_with_low_occupancyILi128EhfhLi256ELi2EEviiPKT0_PT1_E5plogp" from 0x8000 to 0x8068 (shared memory space)
GPGPU-Sim PTX: Warning -- ignoring pragma 'nounroll'
GPGPU-Sim PTX: instruction assembly for function '_Z26entropy_with_low_occupancyILi128EhfhLi256ELi2EEviiPKT0_PT1_'...   done.
GPGPU-Sim PTX: finished parsing EMBEDDED .ptx file 2Dentropy.1.sm_70.ptx
GPGPU-Sim PTX: loading globals with explicit initializers... 
GPGPU-Sim PTX: finished loading globals (0 bytes total).
GPGPU-Sim PTX: loading constants with explicit initializers...  done.
GPGPU-Sim PTX: Loading PTXInfo from 2Dentropy.1.sm_70.ptx
GPGPU-Sim PTX: Kernel '_Z26entropy_with_low_occupancyILi128EhfhLi256ELi2EEviiPKT0_PT1_' : regs=22, lmem=0, smem=32872, cmem=376
GPGPU-Sim PTX: Kernel '_Z29entropy_with_register_spilingILi128EhfhLi256ELi2EEviiPKT0_PT1_' : regs=19, lmem=0, smem=104, cmem=376
GPGPU-Sim PTX: __cudaRegisterFunction _Z29entropy_with_register_spilingILi128EhfhLi256ELi2EEviiPKT0_PT1_ : hostFun 0x0x401c3f, fat_cubin_handle = 1
event update
GPGPU-Sim PTX: Setting up arguments for 4 bytes starting at 0x7ffcd5ab912c..
GPGPU-Sim PTX: Setting up arguments for 4 bytes starting at 0x7ffcd5ab9128..
GPGPU-Sim PTX: Setting up arguments for 8 bytes starting at 0x7ffcd5ab9120..
GPGPU-Sim PTX: Setting up arguments for 8 bytes starting at 0x7ffcd5ab9118..

GPGPU-Sim PTX: cudaLaunch for 0x0x401c3f (mode=performance simulation) on stream 0
GPGPU-Sim PTX: finding reconvergence points for '_Z29entropy_with_register_spilingILi128EhfhLi256ELi2EEviiPKT0_PT1_'...
GPGPU-Sim PTX: Finding dominators for '_Z29entropy_with_register_spilingILi128EhfhLi256ELi2EEviiPKT0_PT1_'...
GPGPU-Sim PTX: Finding immediate dominators for '_Z29entropy_with_register_spilingILi128EhfhLi256ELi2EEviiPKT0_PT1_'...
GPGPU-Sim PTX: Finding postdominators for '_Z29entropy_with_register_spilingILi128EhfhLi256ELi2EEviiPKT0_PT1_'...
GPGPU-Sim PTX: Finding immediate postdominators for '_Z29entropy_with_register_spilingILi128EhfhLi256ELi2EEviiPKT0_PT1_'...
GPGPU-Sim PTX: pre-decoding instructions for '_Z29entropy_with_register_spilingILi128EhfhLi256ELi2EEviiPKT0_PT1_'...
GPGPU-Sim PTX: reconvergence points for _Z29entropy_with_register_spilingILi128EhfhLi256ELi2EEviiPKT0_PT1_...
GPGPU-Sim PTX:  1 (potential) branch divergence @  PC=0x040 (2Dentropy.1.sm_70.ptx:44) @%p1 bra $L__BB0_27;
GPGPU-Sim PTX:    immediate post dominator      @  PC=0x850 (2Dentropy.1.sm_70.ptx:344) bar.sync 0;
GPGPU-Sim PTX:  2 (potential) branch divergence @  PC=0x080 (2Dentropy.1.sm_70.ptx:53) @%p2 bra $L__BB0_8;
GPGPU-Sim PTX:    immediate post dominator      @  PC=0x240 (2Dentropy.1.sm_70.ptx:121) setp.lt.u32 %p8, %r30, 384;
GPGPU-Sim PTX:  3 (potential) branch divergence @  PC=0x0d0 (2Dentropy.1.sm_70.ptx:67) @%p3 bra $L__BB0_7;
GPGPU-Sim PTX:    immediate post dominator      @  PC=0x210 (2Dentropy.1.sm_70.ptx:113) st.shared.f32 [%r267], %f208;
GPGPU-Sim PTX:  4 (potential) branch divergence @  PC=0x1e0 (2Dentropy.1.sm_70.ptx:102) @%p5 bra $L__BB0_6;
GPGPU-Sim PTX:    immediate post dominator      @  PC=0x1f8 (2Dentropy.1.sm_70.ptx:108) setp.eq.f32 %p6, %f2, 0f00000000;
GPGPU-Sim PTX:  5 (potential) branch divergence @  PC=0x238 (2Dentropy.1.sm_70.ptx:118) @%p7 bra $L__BB0_3;
GPGPU-Sim PTX:    immediate post dominator      @  PC=0x240 (2Dentropy.1.sm_70.ptx:121) setp.lt.u32 %p8, %r30, 384;
GPGPU-Sim PTX:  6 (potential) branch divergence @  PC=0x248 (2Dentropy.1.sm_70.ptx:122) @%p8 bra $L__BB0_27;
GPGPU-Sim PTX:    immediate post dominator      @  PC=0x850 (2Dentropy.1.sm_70.ptx:344) bar.sync 0;
GPGPU-Sim PTX:  7 (potential) branch divergence @  PC=0x2b8 (2Dentropy.1.sm_70.ptx:139) @%p9 bra $L__BB0_14;
GPGPU-Sim PTX:    immediate post dominator      @  PC=0x3f8 (2Dentropy.1.sm_70.ptx:185) st.shared.f32 [%r273], %f210;
GPGPU-Sim PTX:  8 (potential) branch divergence @  PC=0x3c8 (2Dentropy.1.sm_70.ptx:174) @%p11 bra $L__BB0_13;
GPGPU-Sim PTX:    immediate post dominator      @  PC=0x3e0 (2Dentropy.1.sm_70.ptx:180) setp.eq.f32 %p12, %f9, 0f00000000;
GPGPU-Sim PTX:  9 (potential) branch divergence @  PC=0x410 (2Dentropy.1.sm_70.ptx:188) @%p13 bra $L__BB0_18;
GPGPU-Sim PTX:    immediate post dominator      @  PC=0x558 (2Dentropy.1.sm_70.ptx:235) st.shared.f32 [%r273+512], %f212;
GPGPU-Sim PTX: 10 (potential) branch divergence @  PC=0x528 (2Dentropy.1.sm_70.ptx:224) @%p15 bra $L__BB0_17;
GPGPU-Sim PTX:    immediate post dominator      @  PC=0x540 (2Dentropy.1.sm_70.ptx:230) setp.eq.f32 %p16, %f16, 0f00000000;
GPGPU-Sim PTX: 11 (potential) branch divergence @  PC=0x570 (2Dentropy.1.sm_70.ptx:238) @%p17 bra $L__BB0_22;
GPGPU-Sim PTX:    immediate post dominator      @  PC=0x6b8 (2Dentropy.1.sm_70.ptx:285) st.shared.f32 [%r273+1024], %f214;
GPGPU-Sim PTX: 12 (potential) branch divergence @  PC=0x688 (2Dentropy.1.sm_70.ptx:274) @%p19 bra $L__BB0_21;
GPGPU-Sim PTX:    immediate post dominator      @  PC=0x6a0 (2Dentropy.1.sm_70.ptx:280) setp.eq.f32 %p20, %f23, 0f00000000;
GPGPU-Sim PTX: 13 (potential) branch divergence @  PC=0x6d0 (2Dentropy.1.sm_70.ptx:288) @%p21 bra $L__BB0_26;
GPGPU-Sim PTX:    immediate post dominator      @  PC=0x818 (2Dentropy.1.sm_70.ptx:335) add.s32 %r19, %r273, 2048;
GPGPU-Sim PTX: 14 (potential) branch divergence @  PC=0x7e8 (2Dentropy.1.sm_70.ptx:324) @%p23 bra $L__BB0_25;
GPGPU-Sim PTX:    immediate post dominator      @  PC=0x800 (2Dentropy.1.sm_70.ptx:330) setp.eq.f32 %p24, %f30, 0f00000000;
GPGPU-Sim PTX: 15 (potential) branch divergence @  PC=0x848 (2Dentropy.1.sm_70.ptx:341) @%p25 bra $L__BB0_10;
GPGPU-Sim PTX:    immediate post dominator      @  PC=0x850 (2Dentropy.1.sm_70.ptx:344) bar.sync 0;
GPGPU-Sim PTX: 16 (potential) branch divergence @  PC=0x8b0 (2Dentropy.1.sm_70.ptx:356) @%p28 bra $L__BB0_95;
GPGPU-Sim PTX:    immediate post dominator      @  PC=0x13b0 (2Dentropy.1.sm_70.ptx:808) ret;
GPGPU-Sim PTX: 17 (potential) branch divergence @  PC=0x960 (2Dentropy.1.sm_70.ptx:379) @%p31 bra $L__BB0_39;
GPGPU-Sim PTX:    immediate post dominator      @  PC=0xaf8 (2Dentropy.1.sm_70.ptx:446) setp.lt.s32 %p45, %r68, 1;
GPGPU-Sim PTX: 18 (potential) branch divergence @  PC=0x9a8 (2Dentropy.1.sm_70.ptx:389) @%p34 bra $L__BB0_31;
GPGPU-Sim PTX:    immediate post dominator      @  PC=0x9d8 (2Dentropy.1.sm_70.ptx:398) setp.lt.s32 %p35, %r72, 1;
GPGPU-Sim PTX: 19 (potential) branch divergence @  PC=0x9f0 (2Dentropy.1.sm_70.ptx:401) @%p37 bra $L__BB0_33;
GPGPU-Sim PTX:    immediate post dominator      @  PC=0xa20 (2Dentropy.1.sm_70.ptx:410) setp.lt.s32 %p38, %r72, 0;
GPGPU-Sim PTX: 20 (potential) branch divergence @  PC=0xa28 (2Dentropy.1.sm_70.ptx:411) @%p38 bra $L__BB0_35;
GPGPU-Sim PTX:    immediate post dominator      @  PC=0xa58 (2Dentropy.1.sm_70.ptx:420) add.s32 %r96, %r72, 1;
GPGPU-Sim PTX: 21 (potential) branch divergence @  PC=0xa78 (2Dentropy.1.sm_70.ptx:424) @%p41 bra $L__BB0_37;
GPGPU-Sim PTX:    immediate post dominator      @  PC=0xaa8 (2Dentropy.1.sm_70.ptx:433) add.s32 %r101, %r72, 2;
GPGPU-Sim PTX: 22 (potential) branch divergence @  PC=0xac8 (2Dentropy.1.sm_70.ptx:437) @%p44 bra $L__BB0_39;
GPGPU-Sim PTX:    immediate post dominator      @  PC=0xaf8 (2Dentropy.1.sm_70.ptx:446) setp.lt.s32 %p45, %r68, 1;
GPGPU-Sim PTX: 23 (potential) branch divergence @  PC=0xb10 (2Dentropy.1.sm_70.ptx:449) @%p47 bra $L__BB0_50;
GPGPU-Sim PTX:    immediate post dominator      @  PC=0xcb0 (2Dentropy.1.sm_70.ptx:517) setp.lt.s32 %p61, %r68, 0;
GPGPU-Sim PTX: 24 (potential) branch divergence @  PC=0xb60 (2Dentropy.1.sm_70.ptx:460) @%p50 bra $L__BB0_42;
GPGPU-Sim PTX:    immediate post dominator      @  PC=0xb90 (2Dentropy.1.sm_70.ptx:469) setp.lt.s32 %p51, %r72, 1;
GPGPU-Sim PTX: 25 (potential) branch divergence @  PC=0xba8 (2Dentropy.1.sm_70.ptx:472) @%p53 bra $L__BB0_44;
GPGPU-Sim PTX:    immediate post dominator      @  PC=0xbd8 (2Dentropy.1.sm_70.ptx:481) setp.lt.s32 %p54, %r72, 0;
GPGPU-Sim PTX: 26 (potential) branch divergence @  PC=0xbe0 (2Dentropy.1.sm_70.ptx:482) @%p54 bra $L__BB0_46;
GPGPU-Sim PTX:    immediate post dominator      @  PC=0xc10 (2Dentropy.1.sm_70.ptx:491) add.s32 %r129, %r72, 1;
GPGPU-Sim PTX: 27 (potential) branch divergence @  PC=0xc30 (2Dentropy.1.sm_70.ptx:495) @%p57 bra $L__BB0_48;
GPGPU-Sim PTX:    immediate post dominator      @  PC=0xc60 (2Dentropy.1.sm_70.ptx:504) add.s32 %r134, %r72, 2;
GPGPU-Sim PTX: 28 (potential) branch divergence @  PC=0xc80 (2Dentropy.1.sm_70.ptx:508) @%p60 bra $L__BB0_50;
GPGPU-Sim PTX:    immediate post dominator      @  PC=0xcb0 (2Dentropy.1.sm_70.ptx:517) setp.lt.s32 %p61, %r68, 0;
GPGPU-Sim PTX: 29 (potential) branch divergence @  PC=0xcb8 (2Dentropy.1.sm_70.ptx:518) @%p61 bra $L__BB0_61;
GPGPU-Sim PTX:    immediate post dominator      @  PC=0xe50 (2Dentropy.1.sm_70.ptx:585) add.s32 %r22, %r68, 1;
GPGPU-Sim PTX: 30 (potential) branch divergence @  PC=0xd00 (2Dentropy.1.sm_70.ptx:528) @%p64 bra $L__BB0_53;
GPGPU-Sim PTX:    immediate post dominator      @  PC=0xd30 (2Dentropy.1.sm_70.ptx:537) setp.lt.s32 %p65, %r72, 1;
GPGPU-Sim PTX: 31 (potential) branch divergence @  PC=0xd48 (2Dentropy.1.sm_70.ptx:540) @%p67 bra $L__BB0_55;
GPGPU-Sim PTX:    immediate post dominator      @  PC=0xd78 (2Dentropy.1.sm_70.ptx:549) setp.lt.s32 %p68, %r72, 0;
GPGPU-Sim PTX: 32 (potential) branch divergence @  PC=0xd80 (2Dentropy.1.sm_70.ptx:550) @%p68 bra $L__BB0_57;
GPGPU-Sim PTX:    immediate post dominator      @  PC=0xdb0 (2Dentropy.1.sm_70.ptx:559) add.s32 %r161, %r72, 1;
GPGPU-Sim PTX: 33 (potential) branch divergence @  PC=0xdd0 (2Dentropy.1.sm_70.ptx:563) @%p71 bra $L__BB0_59;
GPGPU-Sim PTX:    immediate post dominator      @  PC=0xe00 (2Dentropy.1.sm_70.ptx:572) add.s32 %r166, %r72, 2;
GPGPU-Sim PTX: 34 (potential) branch divergence @  PC=0xe20 (2Dentropy.1.sm_70.ptx:576) @%p74 bra $L__BB0_61;
GPGPU-Sim PTX:    immediate post dominator      @  PC=0xe50 (2Dentropy.1.sm_70.ptx:585) add.s32 %r22, %r68, 1;
GPGPU-Sim PTX: 35 (potential) branch divergence @  PC=0xe70 (2Dentropy.1.sm_70.ptx:589) @%p77 bra $L__BB0_72;
GPGPU-Sim PTX:    immediate post dominator      @  PC=0x1008 (2Dentropy.1.sm_70.ptx:656) add.s32 %r23, %r68, 2;
GPGPU-Sim PTX: 36 (potential) branch divergence @  PC=0xeb8 (2Dentropy.1.sm_70.ptx:599) @%p80 bra $L__BB0_64;
GPGPU-Sim PTX:    immediate post dominator      @  PC=0xee8 (2Dentropy.1.sm_70.ptx:608) setp.lt.s32 %p81, %r72, 1;
GPGPU-Sim PTX: 37 (potential) branch divergence @  PC=0xf00 (2Dentropy.1.sm_70.ptx:611) @%p83 bra $L__BB0_66;
GPGPU-Sim PTX:    immediate post dominator      @  PC=0xf30 (2Dentropy.1.sm_70.ptx:620) setp.lt.s32 %p84, %r72, 0;
GPGPU-Sim PTX: 38 (potential) branch divergence @  PC=0xf38 (2Dentropy.1.sm_70.ptx:621) @%p84 bra $L__BB0_68;
GPGPU-Sim PTX:    immediate post dominator      @  PC=0xf68 (2Dentropy.1.sm_70.ptx:630) add.s32 %r189, %r72, 1;
GPGPU-Sim PTX: 39 (potential) branch divergence @  PC=0xf88 (2Dentropy.1.sm_70.ptx:634) @%p87 bra $L__BB0_70;
GPGPU-Sim PTX:    immediate post dominator      @  PC=0xfb8 (2Dentropy.1.sm_70.ptx:643) add.s32 %r194, %r72, 2;
GPGPU-Sim PTX: 40 (potential) branch divergence @  PC=0xfd8 (2Dentropy.1.sm_70.ptx:647) @%p90 bra $L__BB0_72;
GPGPU-Sim PTX:    immediate post dominator      @  PC=0x1008 (2Dentropy.1.sm_70.ptx:656) add.s32 %r23, %r68, 2;
GPGPU-Sim PTX: 41 (potential) branch divergence @  PC=0x1028 (2Dentropy.1.sm_70.ptx:660) @%p93 bra $L__BB0_83;
GPGPU-Sim PTX:    immediate post dominator      @  PC=0x11c0 (2Dentropy.1.sm_70.ptx:727) min.s32 %r228, %r68, 2;
GPGPU-Sim PTX: 42 (potential) branch divergence @  PC=0x1070 (2Dentropy.1.sm_70.ptx:670) @%p96 bra $L__BB0_75;
GPGPU-Sim PTX:    immediate post dominator      @  PC=0x10a0 (2Dentropy.1.sm_70.ptx:679) setp.lt.s32 %p97, %r72, 1;
GPGPU-Sim PTX: 43 (potential) branch divergence @  PC=0x10b8 (2Dentropy.1.sm_70.ptx:682) @%p99 bra $L__BB0_77;
GPGPU-Sim PTX:    immediate post dominator      @  PC=0x10e8 (2Dentropy.1.sm_70.ptx:691) setp.lt.s32 %p100, %r72, 0;
GPGPU-Sim PTX: 44 (potential) branch divergence @  PC=0x10f0 (2Dentropy.1.sm_70.ptx:692) @%p100 bra $L__BB0_79;
GPGPU-Sim PTX:    immediate post dominator      @  PC=0x1120 (2Dentropy.1.sm_70.ptx:701) add.s32 %r217, %r72, 1;
GPGPU-Sim PTX: 45 (potential) branch divergence @  PC=0x1140 (2Dentropy.1.sm_70.ptx:705) @%p103 bra $L__BB0_81;
GPGPU-Sim PTX:    immediate post dominator      @  PC=0x1170 (2Dentropy.1.sm_70.ptx:714) add.s32 %r222, %r72, 2;
GPGPU-Sim PTX: 46 (potential) branch divergence @  PC=0x1190 (2Dentropy.1.sm_70.ptx:718) @%p106 bra $L__BB0_83;
GPGPU-Sim PTX:    immediate post dominator      @  PC=0x11c0 (2Dentropy.1.sm_70.ptx:727) min.s32 %r228, %r68, 2;
GPGPU-Sim PTX: 47 (potential) branch divergence @  PC=0x1258 (2Dentropy.1.sm_70.ptx:746) bra.uni $L__BB0_84;
GPGPU-Sim PTX:    immediate post dominator      @  PC=0x1270 (2Dentropy.1.sm_70.ptx:753) ld.local.u8 %rs1, [%rd77];
GPGPU-Sim PTX: 48 (potential) branch divergence @  PC=0x1280 (2Dentropy.1.sm_70.ptx:755) @%p107 bra $L__BB0_86;
GPGPU-Sim PTX:    immediate post dominator      @  PC=0x12b0 (2Dentropy.1.sm_70.ptx:764) ld.local.u8 %rs2, [%rd77+1];
GPGPU-Sim PTX: 49 (potential) branch divergence @  PC=0x12c0 (2Dentropy.1.sm_70.ptx:766) @%p108 bra $L__BB0_88;
GPGPU-Sim PTX:    immediate post dominator      @  PC=0x12f0 (2Dentropy.1.sm_70.ptx:775) ld.local.u8 %rs3, [%rd77+2];
GPGPU-Sim PTX: 50 (potential) branch divergence @  PC=0x1300 (2Dentropy.1.sm_70.ptx:777) @%p109 bra $L__BB0_90;
GPGPU-Sim PTX:    immediate post dominator      @  PC=0x1330 (2Dentropy.1.sm_70.ptx:786) setp.eq.s32 %p110, %r274, 252;
GPGPU-Sim PTX: 51 (potential) branch divergence @  PC=0x1338 (2Dentropy.1.sm_70.ptx:787) @%p110 bra $L__BB0_94;
GPGPU-Sim PTX:    immediate post dominator      @  PC=0x1388 (2Dentropy.1.sm_70.ptx:801) mad.lo.s32 %r266, %r68, %r26, %r72;
GPGPU-Sim PTX: 52 (potential) branch divergence @  PC=0x1350 (2Dentropy.1.sm_70.ptx:791) @%p111 bra $L__BB0_93;
GPGPU-Sim PTX:    immediate post dominator      @  PC=0x1260 (2Dentropy.1.sm_70.ptx:749) add.s32 %r274, %r274, 4;
GPGPU-Sim PTX: 53 (potential) branch divergence @  PC=0x1380 (2Dentropy.1.sm_70.ptx:798) bra.uni $L__BB0_93;
GPGPU-Sim PTX:    immediate post dominator      @  PC=0x1260 (2Dentropy.1.sm_70.ptx:749) add.s32 %r274, %r274, 4;
GPGPU-Sim PTX: ... end of reconvergence points for _Z29entropy_with_register_spilingILi128EhfhLi256ELi2EEviiPKT0_PT1_
GPGPU-Sim PTX: ... done pre-decoding instructions for '_Z29entropy_with_register_spilingILi128EhfhLi256ELi2EEviiPKT0_PT1_'.
GPGPU-Sim PTX: pushing kernel '_Z29entropy_with_register_spilingILi128EhfhLi256ELi2EEviiPKT0_PT1_' to stream 0, gridDim= (2,256,1) blockDim = (128,1,1) 
GPGPU-Sim uArch: Shader 0 bind to kernel 1 '_Z29entropy_with_register_spilingILi128EhfhLi256ELi2EEviiPKT0_PT1_'
GPGPU-Sim uArch: CTA/core = 8, limited by: threads
GPGPU-Sim: Reconfigure L1 cache to 64KB
Destroy streams for kernel 1: size 0
kernel_name = _Z29entropy_with_register_spilingILi128EhfhLi256ELi2EEviiPKT0_PT1_ 
kernel_launch_uid = 1 
gpu_sim_cycle = 4221290
gpu_sim_insn = 89933188
gpu_ipc =      21.3047
gpu_tot_sim_cycle = 4221290
gpu_tot_sim_insn = 89933188
gpu_tot_ipc =      21.3047
gpu_tot_issued_cta = 512
gpu_occupancy = 98.0398% 
gpu_tot_occupancy = 98.0398% 
max_total_param_size = 0
gpu_stall_dramfull = 0
gpu_stall_icnt2sh    = 0
partiton_level_parallism =       0.6442
partiton_level_parallism_total  =       0.6442
partiton_level_parallism_util =       1.0000
partiton_level_parallism_util_total  =       1.0000
L2_BW  =      28.1367 GB/Sec
L2_BW_total  =      28.1367 GB/Sec
gpu_total_sim_rate=249814

========= Core cache stats =========
L1I_cache:
	L1I_total_cache_accesses = 0
	L1I_total_cache_misses = 0
	L1I_total_cache_pending_hits = 0
	L1I_total_cache_reservation_fails = 0
L1D_cache:
	L1D_cache_core[0]: Access = 5389102, Miss = 1341891, Miss_rate = 0.249, Pending_hits = 10222, Reservation_fails = 3207836
	L1D_total_cache_accesses = 5389102
	L1D_total_cache_misses = 1341891
	L1D_total_cache_miss_rate = 0.2490
	L1D_total_cache_pending_hits = 10222
	L1D_total_cache_reservation_fails = 3207836
	L1D_cache_data_port_util = 0.931
	L1D_cache_fill_port_util = 0.247
L1C_cache:
	L1C_total_cache_accesses = 0
	L1C_total_cache_misses = 0
	L1C_total_cache_pending_hits = 0
	L1C_total_cache_reservation_fails = 0
L1T_cache:
	L1T_total_cache_accesses = 0
	L1T_total_cache_misses = 0
	L1T_total_cache_pending_hits = 0
	L1T_total_cache_reservation_fails = 0

Total_core_cache_stats:
	Total_core_cache_stats_breakdown[GLOBAL_ACC_R][HIT] = 65941
	Total_core_cache_stats_breakdown[GLOBAL_ACC_R][HIT_RESERVED] = 9659
	Total_core_cache_stats_breakdown[GLOBAL_ACC_R][MISS] = 3017
	Total_core_cache_stats_breakdown[GLOBAL_ACC_R][RESERVATION_FAIL] = 106159
	Total_core_cache_stats_breakdown[GLOBAL_ACC_R][SECTOR_MISS] = 8015
	Total_core_cache_stats_breakdown[GLOBAL_ACC_R][MSHR_HIT] = 9659
	Total_core_cache_stats_breakdown[LOCAL_ACC_R][HIT] = 2594333
	Total_core_cache_stats_breakdown[LOCAL_ACC_R][HIT_RESERVED] = 0
	Total_core_cache_stats_breakdown[LOCAL_ACC_R][MISS] = 415142
	Total_core_cache_stats_breakdown[LOCAL_ACC_R][RESERVATION_FAIL] = 1887991
	Total_core_cache_stats_breakdown[LOCAL_ACC_R][SECTOR_MISS] = 616608
	Total_core_cache_stats_breakdown[LOCAL_ACC_R][MSHR_HIT] = 0
	Total_core_cache_stats_breakdown[CONST_ACC_R][HIT] = 0
	Total_core_cache_stats_breakdown[CONST_ACC_R][HIT_RESERVED] = 0
	Total_core_cache_stats_breakdown[CONST_ACC_R][MISS] = 0
	Total_core_cache_stats_breakdown[CONST_ACC_R][RESERVATION_FAIL] = 0
	Total_core_cache_stats_breakdown[CONST_ACC_R][SECTOR_MISS] = 0
	Total_core_cache_stats_breakdown[CONST_ACC_R][MSHR_HIT] = 0
	Total_core_cache_stats_breakdown[TEXTURE_ACC_R][HIT] = 0
	Total_core_cache_stats_breakdown[TEXTURE_ACC_R][HIT_RESERVED] = 0
	Total_core_cache_stats_breakdown[TEXTURE_ACC_R][MISS] = 0
	Total_core_cache_stats_breakdown[TEXTURE_ACC_R][RESERVATION_FAIL] = 0
	Total_core_cache_stats_breakdown[TEXTURE_ACC_R][SECTOR_MISS] = 0
	Total_core_cache_stats_breakdown[TEXTURE_ACC_R][MSHR_HIT] = 0
	Total_core_cache_stats_breakdown[GLOBAL_ACC_W][HIT] = 0
	Total_core_cache_stats_breakdown[GLOBAL_ACC_W][HIT_RESERVED] = 0
	Total_core_cache_stats_breakdown[GLOBAL_ACC_W][MISS] = 2048
	Total_core_cache_stats_breakdown[GLOBAL_ACC_W][RESERVATION_FAIL] = 1606
	Total_core_cache_stats_breakdown[GLOBAL_ACC_W][SECTOR_MISS] = 6144
	Total_core_cache_stats_breakdown[GLOBAL_ACC_W][MSHR_HIT] = 0
	Total_core_cache_stats_breakdown[LOCAL_ACC_W][HIT] = 1376715
	Total_core_cache_stats_breakdown[LOCAL_ACC_W][HIT_RESERVED] = 563
	Total_core_cache_stats_breakdown[LOCAL_ACC_W][MISS] = 176912
	Total_core_cache_stats_breakdown[LOCAL_ACC_W][RESERVATION_FAIL] = 1212080
	Total_core_cache_stats_breakdown[LOCAL_ACC_W][SECTOR_MISS] = 114005
	Total_core_cache_stats_breakdown[LOCAL_ACC_W][MSHR_HIT] = 0
	Total_core_cache_stats_breakdown[L1_WRBK_ACC][HIT] = 0
	Total_core_cache_stats_breakdown[L1_WRBK_ACC][HIT_RESERVED] = 0
	Total_core_cache_stats_breakdown[L1_WRBK_ACC][MISS] = 0
	Total_core_cache_stats_breakdown[L1_WRBK_ACC][RESERVATION_FAIL] = 0
	Total_core_cache_stats_breakdown[L1_WRBK_ACC][SECTOR_MISS] = 0
	Total_core_cache_stats_breakdown[L1_WRBK_ACC][MSHR_HIT] = 0
	Total_core_cache_stats_breakdown[L2_WRBK_ACC][HIT] = 0
	Total_core_cache_stats_breakdown[L2_WRBK_ACC][HIT_RESERVED] = 0
	Total_core_cache_stats_breakdown[L2_WRBK_ACC][MISS] = 0
	Total_core_cache_stats_breakdown[L2_WRBK_ACC][RESERVATION_FAIL] = 0
	Total_core_cache_stats_breakdown[L2_WRBK_ACC][SECTOR_MISS] = 0
	Total_core_cache_stats_breakdown[L2_WRBK_ACC][MSHR_HIT] = 0
	Total_core_cache_stats_breakdown[INST_ACC_R][HIT] = 0
	Total_core_cache_stats_breakdown[INST_ACC_R][HIT_RESERVED] = 0
	Total_core_cache_stats_breakdown[INST_ACC_R][MISS] = 0
	Total_core_cache_stats_breakdown[INST_ACC_R][RESERVATION_FAIL] = 0
	Total_core_cache_stats_breakdown[INST_ACC_R][SECTOR_MISS] = 0
	Total_core_cache_stats_breakdown[INST_ACC_R][MSHR_HIT] = 0
	Total_core_cache_stats_breakdown[L1_WR_ALLOC_R][HIT] = 0
	Total_core_cache_stats_breakdown[L1_WR_ALLOC_R][HIT_RESERVED] = 0
	Total_core_cache_stats_breakdown[L1_WR_ALLOC_R][MISS] = 0
	Total_core_cache_stats_breakdown[L1_WR_ALLOC_R][RESERVATION_FAIL] = 0
	Total_core_cache_stats_breakdown[L1_WR_ALLOC_R][SECTOR_MISS] = 0
	Total_core_cache_stats_breakdown[L1_WR_ALLOC_R][MSHR_HIT] = 0
	Total_core_cache_stats_breakdown[L2_WR_ALLOC_R][HIT] = 0
	Total_core_cache_stats_breakdown[L2_WR_ALLOC_R][HIT_RESERVED] = 0
	Total_core_cache_stats_breakdown[L2_WR_ALLOC_R][MISS] = 0
	Total_core_cache_stats_breakdown[L2_WR_ALLOC_R][RESERVATION_FAIL] = 0
	Total_core_cache_stats_breakdown[L2_WR_ALLOC_R][SECTOR_MISS] = 0
	Total_core_cache_stats_breakdown[L2_WR_ALLOC_R][MSHR_HIT] = 0
	Total_core_cache_stats_breakdown[GLOBAL_ACC_R][TOTAL_ACCESS] = 86632
	Total_core_cache_stats_breakdown[LOCAL_ACC_R][TOTAL_ACCESS] = 3626083
	Total_core_cache_stats_breakdown[GLOBAL_ACC_W][TOTAL_ACCESS] = 8192
	Total_core_cache_stats_breakdown[LOCAL_ACC_W][TOTAL_ACCESS] = 1668195

Total_core_cache_fail_stats:
	Total_core_cache_fail_stats_breakdown[GLOBAL_ACC_R][LINE_ALLOC_FAIL] = 4
	Total_core_cache_fail_stats_breakdown[GLOBAL_ACC_R][MISS_QUEUE_FULL] = 106155
	Total_core_cache_fail_stats_breakdown[LOCAL_ACC_R][LINE_ALLOC_FAIL] = 2720
	Total_core_cache_fail_stats_breakdown[LOCAL_ACC_R][MISS_QUEUE_FULL] = 1881039
	Total_core_cache_fail_stats_breakdown[LOCAL_ACC_R][MSHR_ENRTY_FAIL] = 4232
	Total_core_cache_fail_stats_breakdown[GLOBAL_ACC_W][MISS_QUEUE_FULL] = 1606
	Total_core_cache_fail_stats_breakdown[LOCAL_ACC_W][LINE_ALLOC_FAIL] = 5
	Total_core_cache_fail_stats_breakdown[LOCAL_ACC_W][MISS_QUEUE_FULL] = 1212075
ctas_completed 512, Shader 0 warp_id issue ditsribution:
warp_id:
0, 1, 2, 3, 4, 5, 6, 7, 8, 9, 10, 11, 12, 13, 14, 15, 16, 17, 18, 19, 20, 21, 22, 23, 24, 25, 26, 27, 28, 29, 30, 31, 
distro:
133077, 129846, 129765, 128794, 132273, 129880, 129625, 129532, 133810, 130044, 129824, 128396, 132961, 130025, 129781, 129072, 132657, 129925, 129766, 129023, 133028, 130248, 129809, 128980, 133342, 129994, 129679, 128925, 133322, 129883, 129581, 128663, 
gpgpu_n_tot_thrd_icount = 133552960
gpgpu_n_tot_w_icount = 4173530
gpgpu_n_stall_shd_mem = 1982025
gpgpu_n_mem_read_local = 1031750
gpgpu_n_mem_write_local = 1668195
gpgpu_n_mem_read_global = 11032
gpgpu_n_mem_write_global = 8192
gpgpu_n_mem_texture = 0
gpgpu_n_mem_const = 0
gpgpu_n_load_insn  = 19957832
gpgpu_n_store_insn = 2737188
gpgpu_n_shmem_insn = 1622252
gpgpu_n_sstarr_insn = 0
gpgpu_n_tex_insn = 0
gpgpu_n_const_mem_insn = 0
gpgpu_n_param_mem_insn = 262144
gpgpu_n_shmem_bkconflict = 0
gpgpu_n_cache_bkconflict = 0
gpgpu_n_intrawarp_mshr_merge = 0
gpgpu_n_cmem_portconflict = 0
gpgpu_stall_shd_mem[c_mem][resource_stall] = 0
gpgpu_stall_shd_mem[s_mem][bk_conf] = 0
gpgpu_stall_shd_mem[gl_mem][resource_stall] = 1818992
gpgpu_stall_shd_mem[gl_mem][coal_stall] = 163033
gpgpu_stall_shd_mem[gl_mem][data_port_stall] = 0
gpu_reg_bank_conflict_stalls = 0
Warp Occupancy Distribution:
Stall:5320793	W0_Idle:4894	W0_Scoreboard:7365939	W1:47623	W2:48481	W3:56301	W4:59164	W5:758352	W6:43406	W7:42701	W8:46126	W9:43561	W10:152249	W11:14517	W12:12478	W13:12088	W14:9410	W15:13653	W16:2130	W17:1643	W18:1070	W19:835	W20:546	W21:168	W22:32	W23:39	W24:6	W25:18959	W26:13312	W27:0	W28:0	W29:0	W30:12740	W31:12740	W32:2749200
single_issue_nums: WS0:1064470	WS1:1039845	WS2:1037830	WS3:1031385	
dual_issue_nums: WS0:0	WS1:0	WS2:0	WS3:0	
traffic_breakdown_coretomem[GLOBAL_ACC_R] = 88256 {8:11032,}
traffic_breakdown_coretomem[GLOBAL_ACC_W] = 327680 {40:8192,}
traffic_breakdown_coretomem[LOCAL_ACC_R] = 8254000 {8:1031750,}
traffic_breakdown_coretomem[LOCAL_ACC_W] = 66727800 {40:1668195,}
traffic_breakdown_memtocore[GLOBAL_ACC_R] = 441280 {40:11032,}
traffic_breakdown_memtocore[GLOBAL_ACC_W] = 65536 {8:8192,}
traffic_breakdown_memtocore[LOCAL_ACC_R] = 41270000 {40:1031750,}
traffic_breakdown_memtocore[LOCAL_ACC_W] = 13345560 {8:1668195,}
maxmflatency = 623 
max_icnt2mem_latency = 303 
maxmrqlatency = 14 
max_icnt2sh_latency = 194 
averagemflatency = 264 
avg_icnt2mem_latency = 65 
avg_mrq_latency = 0 
avg_icnt2sh_latency = 2 
mrq_lat_table:5937 	169 	15 	23 	0 	0 	0 	0 	0 	0 	0 	0 	0 	0 	0 	0 	0 	0 	0 	0 	0 	0 	0 	0 	0 	0 	0 	0 	0 	0 	0 	0 	
dq_lat_table:0 	0 	0 	0 	0 	0 	0 	0 	0 	0 	0 	0 	0 	0 	0 	0 	0 	0 	0 	0 	0 	0 	0 	0 	0 	0 	0 	0 	0 	0 	0 	0 	
mf_lat_table:0 	0 	0 	0 	0 	0 	0 	1538076 	1181015 	78 	0 	0 	0 	0 	0 	0 	0 	0 	0 	0 	0 	0 	0 	0 	0 	0 	0 	0 	0 	0 	0 	0 	
icnt2mem_lat_table:0 	0 	0 	0 	0 	1717616 	849661 	151876 	16 	0 	0 	0 	0 	0 	0 	0 	0 	0 	0 	0 	0 	0 	0 	0 	
icnt2sh_lat_table:0 	2681821 	8262 	8936 	9255 	7723 	2982 	190 	0 	0 	0 	0 	0 	0 	0 	0 	0 	0 	0 	0 	0 	0 	0 	0 	
mf_lat_pw_table:0 	0 	0 	0 	0 	0 	0 	3733 	4697 	0 	0 	0 	0 	0 	0 	0 	0 	0 	0 	0 	0 	0 	0 	0 	0 	0 	0 	0 	0 	0 	0 	0 	
maximum concurrent accesses to same row:
dram[0]:         0         0         0         0         0         0         0         0         0         0         0         0         0         0         0         0 
dram[1]:         0         0         0         0         0         0         0         0         0         0         0         0         0         0         0         0 
dram[2]:         0         0         0         0         0         0         0         0         0         0         0         0         0         0         0         0 
dram[3]:         0         0         0         0         0         0         0         0         0         0         0         0         0         0         0         0 
dram[4]:         0         0         0         0         0         0         0         0         0         0         0         0         0         0         0         0 
dram[5]:         0         0         0         0         0         0         0         0         0         0         0         0         0         0         0         0 
dram[6]:         0         0         0         0         0         0         0         0         0         0         0         0         0         0         0         0 
dram[7]:         0         0         0         0         0         0         0         0         0         0         0         0         0         0         0         0 
dram[8]:         0         0         0         0         0         0         0         0         0         0         0         0         0         0         0         0 
dram[9]:         0         0         0         0         0         0         0         0         0         0         0         0         0         0         0         0 
dram[10]:         0         0         0         0         0         0         0         0         0         0         0         0         0         0         0         0 
dram[11]:         0         0         0         0         0         0         0         0         0         0         0         0         0         0         0         0 
maximum service time to same row:
dram[0]:         0         0         0         0      8331      8453      8247      8492      8258      8410      8242      8482      8264      8431      8254      8408 
dram[1]:         0         0         0         0      8728      8996      8693      8757      8672      8751      8690      8750      8950      8740      8687      8731 
dram[2]:         0         0         0         0      8889      8279      8888      8274      8767      8286      8770      8342      8766      8285      8762      8266 
dram[3]:         0         0         0         0      8389      9114      8419      8401      8444      8397      8416      8396      8380      8395      8379      8448 
dram[4]:         0         0         0         0      8249      8489      8309      8415      8262      8412      8244      8409      8243      8404      8239      8429 
dram[5]:         0         0         0         0     18630      8814      8647      8753      8710      8987      8644      9032      8801      8745      8651      8730 
dram[6]:         0         0         0         0      8773      8294      8789      8275      8771      8314      8914      8267      8815      8271      8756      8282 
dram[7]:         0         0         0         0      8475      8402      8388      8399      8587      8451      8417      8426      8382      8394      8456      8744 
dram[8]:         0         0         0         0      8251      8452      8248      8414      8245      8466      8306      8547      8253      8406      8295      8481 
dram[9]:         0         0         0         0     18766      8761      8694      8760      8664      9200      8654      8747      8682      8808      8640      8807 
dram[10]:         0         0         0         0      8779      8377      8769      8291      8768      8270      9036      8283      8764      8269      8758      8265 
dram[11]:         0         0         0         0      8519      8663      8387      8405      8418      8427      8381      8700      8459      8393      8378      8907 
average row accesses per activate:
dram[0]:      -nan      -nan      -nan      -nan 16.000000 16.000000 48.000000 48.000000 48.000000 48.000000 48.000000 48.000000 48.000000 48.000000 48.000000 48.000000 
dram[1]:      -nan      -nan      -nan      -nan 16.000000 16.000000 48.000000 48.000000 48.000000 48.000000 48.000000 48.000000 48.000000 48.000000 48.000000 48.000000 
dram[2]:      -nan      -nan      -nan      -nan 16.000000 16.000000 48.000000 48.000000 48.000000 48.000000 48.000000 48.000000 48.000000 48.000000 48.000000 48.000000 
dram[3]:      -nan      -nan      -nan      -nan 16.000000 16.000000 48.000000 48.000000 48.000000 48.000000 48.000000 48.000000 48.000000 48.000000 48.000000 48.000000 
dram[4]:      -nan      -nan      -nan      -nan 16.000000 16.000000 48.000000 48.000000 48.000000 48.000000 48.000000 48.000000 48.000000 48.000000 48.000000 48.000000 
dram[5]:      -nan      -nan      -nan      -nan 16.000000 16.000000 48.000000 48.000000 48.000000 48.000000 48.000000 48.000000 48.000000 48.000000 48.000000 48.000000 
dram[6]:      -nan      -nan      -nan      -nan 16.000000 16.000000 48.000000 48.000000 48.000000 48.000000 48.000000 48.000000 48.000000 48.000000 48.000000 48.000000 
dram[7]:      -nan      -nan      -nan      -nan 16.000000 16.000000 48.000000 48.000000 48.000000 48.000000 48.000000 48.000000 48.000000 48.000000 48.000000 48.000000 
dram[8]:      -nan      -nan      -nan      -nan 16.000000 16.000000 48.000000 48.000000 48.000000 48.000000 48.000000 48.000000 48.000000 48.000000 48.000000 48.000000 
dram[9]:      -nan      -nan      -nan      -nan 16.000000 16.000000 48.000000 48.000000 48.000000 48.000000 48.000000 48.000000 48.000000 48.000000 48.000000 48.000000 
dram[10]:      -nan      -nan      -nan      -nan 16.000000 16.000000 48.000000 48.000000 48.000000 48.000000 48.000000 48.000000 48.000000 48.000000 48.000000 48.000000 
dram[11]:      -nan      -nan      -nan      -nan 16.000000 16.000000 48.000000 48.000000 48.000000 48.000000 48.000000 48.000000 48.000000 48.000000 48.000000 48.000000 
average row locality = 6144/144 = 42.666668
number of total memory accesses made:
dram[0]:         0         0         0         0         0         0         0         0         0         0         0         0         0         0         0         0 
dram[1]:         0         0         0         0         0         0         0         0         0         0         0         0         0         0         0         0 
dram[2]:         0         0         0         0         0         0         0         0         0         0         0         0         0         0         0         0 
dram[3]:         0         0         0         0         0         0         0         0         0         0         0         0         0         0         0         0 
dram[4]:         0         0         0         0         0         0         0         0         0         0         0         0         0         0         0         0 
dram[5]:         0         0         0         0         0         0         0         0         0         0         0         0         0         0         0         0 
dram[6]:         0         0         0         0         0         0         0         0         0         0         0         0         0         0         0         0 
dram[7]:         0         0         0         0         0         0         0         0         0         0         0         0         0         0         0         0 
dram[8]:         0         0         0         0         0         0         0         0         0         0         0         0         0         0         0         0 
dram[9]:         0         0         0         0         0         0         0         0         0         0         0         0         0         0         0         0 
dram[10]:         0         0         0         0         0         0         0         0         0         0         0         0         0         0         0         0 
dram[11]:         0         0         0         0         0         0         0         0         0         0         0         0         0         0         0         0 
total accesses: 0
min_bank_accesses = 0!
min_chip_accesses = 0!
number of total read accesses:
dram[0]:         0         0         0         0        16        16        48        48        48        48        48        48        48        48        48        48 
dram[1]:         0         0         0         0        16        16        48        48        48        48        48        48        48        48        48        48 
dram[2]:         0         0         0         0        16        16        48        48        48        48        48        48        48        48        48        48 
dram[3]:         0         0         0         0        16        16        48        48        48        48        48        48        48        48        48        48 
dram[4]:         0         0         0         0        16        16        48        48        48        48        48        48        48        48        48        48 
dram[5]:         0         0         0         0        16        16        48        48        48        48        48        48        48        48        48        48 
dram[6]:         0         0         0         0        16        16        48        48        48        48        48        48        48        48        48        48 
dram[7]:         0         0         0         0        16        16        48        48        48        48        48        48        48        48        48        48 
dram[8]:         0         0         0         0        16        16        48        48        48        48        48        48        48        48        48        48 
dram[9]:         0         0         0         0        16        16        48        48        48        48        48        48        48        48        48        48 
dram[10]:         0         0         0         0        16        16        48        48        48        48        48        48        48        48        48        48 
dram[11]:         0         0         0         0        16        16        48        48        48        48        48        48        48        48        48        48 
total dram reads = 6144
min_bank_accesses = 0!
chip skew: 512/512 = 1.00
number of total write accesses:
dram[0]:         0         0         0         0         0         0         0         0         0         0         0         0         0         0         0         0 
dram[1]:         0         0         0         0         0         0         0         0         0         0         0         0         0         0         0         0 
dram[2]:         0         0         0         0         0         0         0         0         0         0         0         0         0         0         0         0 
dram[3]:         0         0         0         0         0         0         0         0         0         0         0         0         0         0         0         0 
dram[4]:         0         0         0         0         0         0         0         0         0         0         0         0         0         0         0         0 
dram[5]:         0         0         0         0         0         0         0         0         0         0         0         0         0         0         0         0 
dram[6]:         0         0         0         0         0         0         0         0         0         0         0         0         0         0         0         0 
dram[7]:         0         0         0         0         0         0         0         0         0         0         0         0         0         0         0         0 
dram[8]:         0         0         0         0         0         0         0         0         0         0         0         0         0         0         0         0 
dram[9]:         0         0         0         0         0         0         0         0         0         0         0         0         0         0         0         0 
dram[10]:         0         0         0         0         0         0         0         0         0         0         0         0         0         0         0         0 
dram[11]:         0         0         0         0         0         0         0         0         0         0         0         0         0         0         0         0 
total dram writes = 0
min_bank_accesses = 0!
min_chip_accesses = 0!
average mf latency per bank:
dram[0]:     none      none      none      none      111251    112554    112316    117568    116834    113286    116700    117444    115791    116745    117524    116202
dram[1]:     none      none      none      none      110547    111177    117763    118036    119092    119680    118598    122247    118120    115014    117395    115865
dram[2]:     none      none      none      none      111467    111806    110787    117761    113106    112638    110910    116332    114437    112950    119106    118317
dram[3]:     none      none      none      none      102984    105060    116566    114284    117854    116307    118268    119943    120185    116390    115494    116504
dram[4]:     none      none      none      none      113316    115633    114249    117725    115991    118807    117258    120229    118771    116207    114924    115688
dram[5]:     none      none      none      none      109878    103120    117537    116526    120021    114525    119634    118814    116541    115508    119899    118824
dram[6]:     none      none      none      none      110247    108429    112005    118455    113266    112593    114186    119167    114349    113733    115485    117208
dram[7]:     none      none      none      none      106469    101984    114451    115026    116139    114375    115374    117648    116336    114598    118552    115829
dram[8]:     none      none      none      none      134118    137604    113830    118979    119243    115289    113341    119893    118719    117038    114727    115874
dram[9]:     none      none      none      none      137058    126648    117900    113299    116569    115386    118872    119256    116378    114938    118697    116653
dram[10]:     none      none      none      none      131311    137652    112051    115438    114393    113022    113460    119834    114082    114025    116376    115856
dram[11]:     none      none      none      none      135879    128279    117894    116263    114647    112390    116683    115532    115384    115714    119405    115852
maximum mf latency per bank:
dram[0]:        427       446       357       390       455       554       468       492       475       489       478       505       460       547       468       492
dram[1]:        429       416       389       365       528       538       492       579       482       573       520       513       583       494       516       495
dram[2]:        425       414       360       385       533       457       474       466       504       524       494       503       473       514       460       537
dram[3]:        414       515       385       371       480       501       491       564       488       576       460       512       485       565       533       548
dram[4]:        442       375       392       377       465       541       459       481       486       480       566       464       480       464       485       548
dram[5]:        399       378       377       384       493       455       464       511       584       582       507       575       515       567       523       526
dram[6]:        409       390       405       399       501       498       503       487       500       444       504       495       522       450       517       451
dram[7]:        404       387       364       381       519       456       502       574       524       487       494       570       511       527       500       509
dram[8]:        394       380       425       368       496       494       489       460       524       445       484       487       486       456       524       467
dram[9]:        397       424       371       348       509       488       451       521       572       587       623       580       518       499       482       573
dram[10]:        410       373       398       378       477       462       506       486       505       496       544       459       536       452       526       516
dram[11]:        384       391       393       355       483       451       490       543       521       517       512       531       504       565       541       555
Memory Partition 0: 
Cache L2_bank_000:
MSHR contents

Cache L2_bank_001:
MSHR contents

In Dram Latency Queue (total = 0): 
DRAM[0]: 16 bks, busW=2 BL=16 CL=24, tRRD=12 tCCD=4, tRCD=24 tRAS=55 tRP=24 tRC=78
n_cmd=10825365 n_nop=10824841 n_act=12 n_pre=0 n_ref_event=0 n_req=512 n_rd=512 n_rd_L2_A=0 n_write=0 n_wr_bk=0 bw_util=0.0001892
n_activity=8155 dram_eff=0.2511
bk0: 0a 10825362i bk1: 0a 10825364i bk2: 0a 10825367i bk3: 0a 10825368i bk4: 16a 10825328i bk5: 16a 10825339i bk6: 48a 10825309i bk7: 48a 10825280i bk8: 48a 10825302i bk9: 48a 10825283i bk10: 48a 10825260i bk11: 48a 10825303i bk12: 48a 10825305i bk13: 48a 10825287i bk14: 48a 10825272i bk15: 48a 10825305i 

------------------------------------------------------------------------

Row_Buffer_Locality = 0.976562
Row_Buffer_Locality_read = 0.976562
Row_Buffer_Locality_write = -nan
Bank_Level_Parallism = 1.079901
Bank_Level_Parallism_Col = 1.068766
Bank_Level_Parallism_Ready = 1.001953
write_to_read_ratio_blp_rw_average = 0.000000
GrpLevelPara = 1.043911 

BW Util details:
bwutil = 0.000189 
total_CMD = 10825365 
util_bw = 2048 
Wasted_Col = 415 
Wasted_Row = 0 
Idle = 10822902 

BW Util Bottlenecks: 
RCDc_limit = 233 
RCDWRc_limit = 0 
WTRc_limit = 0 
RTWc_limit = 0 
CCDLc_limit = 239 
rwq = 0 
CCDLc_limit_alone = 239 
WTRc_limit_alone = 0 
RTWc_limit_alone = 0 

Commands details: 
total_CMD = 10825365 
n_nop = 10824841 
Read = 512 
Write = 0 
L2_Alloc = 0 
L2_WB = 0 
n_act = 12 
n_pre = 0 
n_ref = 0 
n_req = 512 
total_req = 512 

Dual Bus Interface Util: 
issued_total_row = 12 
issued_total_col = 512 
Row_Bus_Util =  0.000001 
CoL_Bus_Util = 0.000047 
Either_Row_CoL_Bus_Util = 0.000048 
Issued_on_Two_Bus_Simul_Util = 0.000000 
issued_two_Eff = 0.000000 
queue_avg = 0.000017 


dram_util_bins: 0 0 0 0 0 0 0 0 0 0
dram_eff_bins: 0 0 0 0 0 0 0 0 0 0
mrqq: max=2 avg=1.69047e-05
Memory Partition 1: 
Cache L2_bank_002:
MSHR contents

Cache L2_bank_003:
MSHR contents

In Dram Latency Queue (total = 0): 
DRAM[1]: 16 bks, busW=2 BL=16 CL=24, tRRD=12 tCCD=4, tRCD=24 tRAS=55 tRP=24 tRC=78
n_cmd=10825365 n_nop=10824841 n_act=12 n_pre=0 n_ref_event=0 n_req=512 n_rd=512 n_rd_L2_A=0 n_write=0 n_wr_bk=0 bw_util=0.0001892
n_activity=8068 dram_eff=0.2538
bk0: 0a 10825360i bk1: 0a 10825364i bk2: 0a 10825367i bk3: 0a 10825367i bk4: 16a 10825338i bk5: 16a 10825315i bk6: 48a 10825284i bk7: 48a 10825293i bk8: 48a 10825281i bk9: 48a 10825288i bk10: 48a 10825277i bk11: 48a 10825305i bk12: 48a 10825270i bk13: 48a 10825267i bk14: 48a 10825272i bk15: 48a 10825279i 

------------------------------------------------------------------------

Row_Buffer_Locality = 0.976562
Row_Buffer_Locality_read = 0.976562
Row_Buffer_Locality_write = -nan
Bank_Level_Parallism = 1.109460
Bank_Level_Parallism_Col = 1.078555
Bank_Level_Parallism_Ready = 1.003906
write_to_read_ratio_blp_rw_average = 0.000000
GrpLevelPara = 1.051846 

BW Util details:
bwutil = 0.000189 
total_CMD = 10825365 
util_bw = 2048 
Wasted_Col = 432 
Wasted_Row = 0 
Idle = 10822885 

BW Util Bottlenecks: 
RCDc_limit = 214 
RCDWRc_limit = 0 
WTRc_limit = 0 
RTWc_limit = 0 
CCDLc_limit = 279 
rwq = 0 
CCDLc_limit_alone = 279 
WTRc_limit_alone = 0 
RTWc_limit_alone = 0 

Commands details: 
total_CMD = 10825365 
n_nop = 10824841 
Read = 512 
Write = 0 
L2_Alloc = 0 
L2_WB = 0 
n_act = 12 
n_pre = 0 
n_ref = 0 
n_req = 512 
total_req = 512 

Dual Bus Interface Util: 
issued_total_row = 12 
issued_total_col = 512 
Row_Bus_Util =  0.000001 
CoL_Bus_Util = 0.000047 
Either_Row_CoL_Bus_Util = 0.000048 
Issued_on_Two_Bus_Simul_Util = 0.000000 
issued_two_Eff = 0.000000 
queue_avg = 0.000019 


dram_util_bins: 0 0 0 0 0 0 0 0 0 0
dram_eff_bins: 0 0 0 0 0 0 0 0 0 0
mrqq: max=2 avg=1.93989e-05
Memory Partition 2: 
Cache L2_bank_004:
MSHR contents

Cache L2_bank_005:
MSHR contents

In Dram Latency Queue (total = 0): 
DRAM[2]: 16 bks, busW=2 BL=16 CL=24, tRRD=12 tCCD=4, tRCD=24 tRAS=55 tRP=24 tRC=78
n_cmd=10825365 n_nop=10824841 n_act=12 n_pre=0 n_ref_event=0 n_req=512 n_rd=512 n_rd_L2_A=0 n_write=0 n_wr_bk=0 bw_util=0.0001892
n_activity=7879 dram_eff=0.2599
bk0: 0a 10825363i bk1: 0a 10825365i bk2: 0a 10825366i bk3: 0a 10825368i bk4: 16a 10825325i bk5: 16a 10825330i bk6: 48a 10825274i bk7: 48a 10825262i bk8: 48a 10825287i bk9: 48a 10825297i bk10: 48a 10825275i bk11: 48a 10825290i bk12: 48a 10825274i bk13: 48a 10825311i bk14: 48a 10825295i bk15: 48a 10825310i 

------------------------------------------------------------------------

Row_Buffer_Locality = 0.976562
Row_Buffer_Locality_read = 0.976562
Row_Buffer_Locality_write = -nan
Bank_Level_Parallism = 1.123447
Bank_Level_Parallism_Col = 1.076476
Bank_Level_Parallism_Ready = 1.000000
write_to_read_ratio_blp_rw_average = 0.000000
GrpLevelPara = 1.044057 

BW Util details:
bwutil = 0.000189 
total_CMD = 10825365 
util_bw = 2048 
Wasted_Col = 394 
Wasted_Row = 0 
Idle = 10822923 

BW Util Bottlenecks: 
RCDc_limit = 226 
RCDWRc_limit = 0 
WTRc_limit = 0 
RTWc_limit = 0 
CCDLc_limit = 253 
rwq = 0 
CCDLc_limit_alone = 253 
WTRc_limit_alone = 0 
RTWc_limit_alone = 0 

Commands details: 
total_CMD = 10825365 
n_nop = 10824841 
Read = 512 
Write = 0 
L2_Alloc = 0 
L2_WB = 0 
n_act = 12 
n_pre = 0 
n_ref = 0 
n_req = 512 
total_req = 512 

Dual Bus Interface Util: 
issued_total_row = 12 
issued_total_col = 512 
Row_Bus_Util =  0.000001 
CoL_Bus_Util = 0.000047 
Either_Row_CoL_Bus_Util = 0.000048 
Issued_on_Two_Bus_Simul_Util = 0.000000 
issued_two_Eff = 0.000000 
queue_avg = 0.000014 


dram_util_bins: 0 0 0 0 0 0 0 0 0 0
dram_eff_bins: 0 0 0 0 0 0 0 0 0 0
mrqq: max=2 avg=1.43182e-05
Memory Partition 3: 
Cache L2_bank_006:
MSHR contents

Cache L2_bank_007:
MSHR contents

In Dram Latency Queue (total = 0): 
DRAM[3]: 16 bks, busW=2 BL=16 CL=24, tRRD=12 tCCD=4, tRCD=24 tRAS=55 tRP=24 tRC=78
n_cmd=10825365 n_nop=10824842 n_act=12 n_pre=0 n_ref_event=0 n_req=512 n_rd=512 n_rd_L2_A=0 n_write=0 n_wr_bk=0 bw_util=0.0001892
n_activity=7777 dram_eff=0.2633
bk0: 0a 10825363i bk1: 0a 10825364i bk2: 0a 10825365i bk3: 0a 10825366i bk4: 16a 10825339i bk5: 16a 10825308i bk6: 48a 10825310i bk7: 48a 10825272i bk8: 48a 10825270i bk9: 48a 10825275i bk10: 48a 10825257i bk11: 48a 10825248i bk12: 48a 10825284i bk13: 48a 10825297i bk14: 48a 10825287i bk15: 48a 10825282i 

------------------------------------------------------------------------

Row_Buffer_Locality = 0.976562
Row_Buffer_Locality_read = 0.976562
Row_Buffer_Locality_write = -nan
Bank_Level_Parallism = 1.174718
Bank_Level_Parallism_Col = 1.113710
Bank_Level_Parallism_Ready = 1.001949
write_to_read_ratio_blp_rw_average = 0.000000
GrpLevelPara = 1.062903 

BW Util details:
bwutil = 0.000189 
total_CMD = 10825365 
util_bw = 2048 
Wasted_Col = 374 
Wasted_Row = 0 
Idle = 10822943 

BW Util Bottlenecks: 
RCDc_limit = 194 
RCDWRc_limit = 0 
WTRc_limit = 0 
RTWc_limit = 0 
CCDLc_limit = 272 
rwq = 0 
CCDLc_limit_alone = 272 
WTRc_limit_alone = 0 
RTWc_limit_alone = 0 

Commands details: 
total_CMD = 10825365 
n_nop = 10824842 
Read = 512 
Write = 0 
L2_Alloc = 0 
L2_WB = 0 
n_act = 12 
n_pre = 0 
n_ref = 0 
n_req = 512 
total_req = 512 

Dual Bus Interface Util: 
issued_total_row = 12 
issued_total_col = 512 
Row_Bus_Util =  0.000001 
CoL_Bus_Util = 0.000047 
Either_Row_CoL_Bus_Util = 0.000048 
Issued_on_Two_Bus_Simul_Util = 0.000000 
issued_two_Eff = 0.001912 
queue_avg = 0.000021 


dram_util_bins: 0 0 0 0 0 0 0 0 0 0
dram_eff_bins: 0 0 0 0 0 0 0 0 0 0
mrqq: max=2 avg=2.07845e-05
Memory Partition 4: 
Cache L2_bank_008:
MSHR contents

Cache L2_bank_009:
MSHR contents

In Dram Latency Queue (total = 0): 
DRAM[4]: 16 bks, busW=2 BL=16 CL=24, tRRD=12 tCCD=4, tRCD=24 tRAS=55 tRP=24 tRC=78
n_cmd=10825365 n_nop=10824841 n_act=12 n_pre=0 n_ref_event=0 n_req=512 n_rd=512 n_rd_L2_A=0 n_write=0 n_wr_bk=0 bw_util=0.0001892
n_activity=8016 dram_eff=0.2555
bk0: 0a 10825363i bk1: 0a 10825365i bk2: 0a 10825366i bk3: 0a 10825366i bk4: 16a 10825308i bk5: 16a 10825341i bk6: 48a 10825290i bk7: 48a 10825256i bk8: 48a 10825307i bk9: 48a 10825306i bk10: 48a 10825292i bk11: 48a 10825296i bk12: 48a 10825299i bk13: 48a 10825275i bk14: 48a 10825273i bk15: 48a 10825292i 

------------------------------------------------------------------------

Row_Buffer_Locality = 0.976562
Row_Buffer_Locality_read = 0.976562
Row_Buffer_Locality_write = -nan
Bank_Level_Parallism = 1.157534
Bank_Level_Parallism_Col = 1.117799
Bank_Level_Parallism_Ready = 1.005848
write_to_read_ratio_blp_rw_average = 0.000000
GrpLevelPara = 1.059329 

BW Util details:
bwutil = 0.000189 
total_CMD = 10825365 
util_bw = 2048 
Wasted_Col = 364 
Wasted_Row = 0 
Idle = 10822953 

BW Util Bottlenecks: 
RCDc_limit = 188 
RCDWRc_limit = 0 
WTRc_limit = 0 
RTWc_limit = 0 
CCDLc_limit = 256 
rwq = 0 
CCDLc_limit_alone = 256 
WTRc_limit_alone = 0 
RTWc_limit_alone = 0 

Commands details: 
total_CMD = 10825365 
n_nop = 10824841 
Read = 512 
Write = 0 
L2_Alloc = 0 
L2_WB = 0 
n_act = 12 
n_pre = 0 
n_ref = 0 
n_req = 512 
total_req = 512 

Dual Bus Interface Util: 
issued_total_row = 12 
issued_total_col = 512 
Row_Bus_Util =  0.000001 
CoL_Bus_Util = 0.000047 
Either_Row_CoL_Bus_Util = 0.000048 
Issued_on_Two_Bus_Simul_Util = 0.000000 
issued_two_Eff = 0.000000 
queue_avg = 0.000016 


dram_util_bins: 0 0 0 0 0 0 0 0 0 0
dram_eff_bins: 0 0 0 0 0 0 0 0 0 0
mrqq: max=2 avg=1.63505e-05
Memory Partition 5: 
Cache L2_bank_010:
MSHR contents

Cache L2_bank_011:
MSHR contents

In Dram Latency Queue (total = 0): 
DRAM[5]: 16 bks, busW=2 BL=16 CL=24, tRRD=12 tCCD=4, tRCD=24 tRAS=55 tRP=24 tRC=78
n_cmd=10825365 n_nop=10824841 n_act=12 n_pre=0 n_ref_event=0 n_req=512 n_rd=512 n_rd_L2_A=0 n_write=0 n_wr_bk=0 bw_util=0.0001892
n_activity=8267 dram_eff=0.2477
bk0: 0a 10825363i bk1: 0a 10825364i bk2: 0a 10825365i bk3: 0a 10825367i bk4: 16a 10825337i bk5: 16a 10825330i bk6: 48a 10825288i bk7: 48a 10825280i bk8: 48a 10825289i bk9: 48a 10825299i bk10: 48a 10825270i bk11: 48a 10825307i bk12: 48a 10825260i bk13: 48a 10825271i bk14: 48a 10825288i bk15: 48a 10825286i 

------------------------------------------------------------------------

Row_Buffer_Locality = 0.976562
Row_Buffer_Locality_read = 0.976562
Row_Buffer_Locality_write = -nan
Bank_Level_Parallism = 1.046282
Bank_Level_Parallism_Col = 1.035115
Bank_Level_Parallism_Ready = 1.001949
write_to_read_ratio_blp_rw_average = 0.000000
GrpLevelPara = 1.015267 

BW Util details:
bwutil = 0.000189 
[...]
queue_avg = 0.000005 


dram_util_bins: 0 0 0 0 0 0 0 0 0 0
dram_eff_bins: 0 0 0 0 0 0 0 0 0 0
mrqq: max=3 avg=4.92143e-06
Memory Partition 6: 
Cache L2_bank_012:
MSHR contents

Cache L2_bank_013:
MSHR contents

In Dram Latency Queue (total = 0): 
DRAM[6]: 16 bks, busW=2 BL=16 CL=24, tRRD=12 tCCD=4, tRCD=24 tRAS=55 tRP=24 tRC=78
n_cmd=44702474 n_nop=44701950 n_act=12 n_pre=0 n_ref_event=0 n_req=512 n_rd=512 n_rd_L2_A=0 n_write=0 n_wr_bk=0 bw_util=4.581e-05
n_activity=8040 dram_eff=0.2547
bk0: 0a 44702469i bk1: 0a 44702473i bk2: 0a 44702475i bk3: 0a 44702478i bk4: 16a 44702442i bk5: 16a 44702448i bk6: 48a 44702387i bk7: 48a 44702381i bk8: 48a 44702407i bk9: 48a 44702391i bk10: 48a 44702402i bk11: 48a 44702399i bk12: 48a 44702397i bk13: 48a 44702418i bk14: 48a 44702417i bk15: 48a 44702375i 

------------------------------------------------------------------------

Row_Buffer_Locality = 0.976562
Row_Buffer_Locality_read = 0.976562
Row_Buffer_Locality_write = -nan
Bank_Level_Parallism = 1.065811
Bank_Level_Parallism_Col = 1.054120
Bank_Level_Parallism_Ready = 1.000000
write_to_read_ratio_blp_rw_average = 0.000000
GrpLevelPara = 1.022617 

BW Util details:
bwutil = 0.000046 
total_CMD = 44702474 
util_bw = 2048 
Wasted_Col = 458 
Wasted_Row = 0 
Idle = 44699968 

BW Util Bottlenecks: 
RCDc_limit = 243 
RCDWRc_limit = 0 
WTRc_limit = 0 
RTWc_limit = 0 
CCDLc_limit = 270 
rwq = 0 
CCDLc_limit_alone = 270 
WTRc_limit_alone = 0 
RTWc_limit_alone = 0 

Commands details: 
total_CMD = 44702474 
n_nop = 44701950 
Read = 512 
Write = 0 
L2_Alloc = 0 
L2_WB = 0 
n_act = 12 
n_pre = 0 
n_ref = 0 
n_req = 512 
total_req = 512 

Dual Bus Interface Util: 
issued_total_row = 12 
issued_total_col = 512 
Row_Bus_Util =  0.000000 
CoL_Bus_Util = 0.000011 
Either_Row_CoL_Bus_Util = 0.000012 
Issued_on_Two_Bus_Simul_Util = 0.000000 
issued_two_Eff = 0.000000 
queue_avg = 0.000004 


dram_util_bins: 0 0 0 0 0 0 0 0 0 0
dram_eff_bins: 0 0 0 0 0 0 0 0 0 0
mrqq: max=2 avg=4.38454e-06
Memory Partition 7: 
Cache L2_bank_014:
MSHR contents

Cache L2_bank_015:
MSHR contents

In Dram Latency Queue (total = 0): 
DRAM[7]: 16 bks, busW=2 BL=16 CL=24, tRRD=12 tCCD=4, tRCD=24 tRAS=55 tRP=24 tRC=78
n_cmd=44702474 n_nop=44701950 n_act=12 n_pre=0 n_ref_event=0 n_req=512 n_rd=512 n_rd_L2_A=0 n_write=0 n_wr_bk=0 bw_util=4.581e-05
n_activity=7890 dram_eff=0.2596
bk0: 0a 44702472i bk1: 0a 44702473i bk2: 0a 44702473i bk3: 0a 44702475i bk4: 16a 44702445i bk5: 16a 44702420i bk6: 48a 44702423i bk7: 48a 44702422i bk8: 48a 44702372i bk9: 48a 44702401i bk10: 48a 44702377i bk11: 48a 44702380i bk12: 48a 44702396i bk13: 48a 44702404i bk14: 48a 44702399i bk15: 48a 44702394i 

------------------------------------------------------------------------

Row_Buffer_Locality = 0.976562
Row_Buffer_Locality_read = 0.976562
Row_Buffer_Locality_write = -nan
Bank_Level_Parallism = 1.068342
Bank_Level_Parallism_Col = 1.060773
Bank_Level_Parallism_Ready = 1.003906
write_to_read_ratio_blp_rw_average = 0.000000
GrpLevelPara = 1.055249 

BW Util details:
bwutil = 0.000046 
total_CMD = 44702474 
util_bw = 2048 
Wasted_Col = 434 
Wasted_Row = 0 
Idle = 44699992 

BW Util Bottlenecks: 
RCDc_limit = 228 
RCDWRc_limit = 0 
WTRc_limit = 0 
RTWc_limit = 0 
CCDLc_limit = 254 
rwq = 0 
CCDLc_limit_alone = 254 
WTRc_limit_alone = 0 
RTWc_limit_alone = 0 

Commands details: 
total_CMD = 44702474 
n_nop = 44701950 
Read = 512 
Write = 0 
L2_Alloc = 0 
L2_WB = 0 
n_act = 12 
n_pre = 0 
n_ref = 0 
n_req = 512 
total_req = 512 

Dual Bus Interface Util: 
issued_total_row = 12 
issued_total_col = 512 
Row_Bus_Util =  0.000000 
CoL_Bus_Util = 0.000011 
Either_Row_CoL_Bus_Util = 0.000012 
Issued_on_Two_Bus_Simul_Util = 0.000000 
issued_two_Eff = 0.000000 
queue_avg = 0.000004 


dram_util_bins: 0 0 0 0 0 0 0 0 0 0
dram_eff_bins: 0 0 0 0 0 0 0 0 0 0
mrqq: max=1 avg=4.07136e-06
Memory Partition 8: 
Cache L2_bank_016:
MSHR contents

Cache L2_bank_017:
MSHR contents

In Dram Latency Queue (total = 0): 
DRAM[8]: 16 bks, busW=2 BL=16 CL=24, tRRD=12 tCCD=4, tRCD=24 tRAS=55 tRP=24 tRC=78
n_cmd=44702474 n_nop=44701951 n_act=12 n_pre=0 n_ref_event=0 n_req=512 n_rd=512 n_rd_L2_A=0 n_write=0 n_wr_bk=0 bw_util=4.581e-05
n_activity=8123 dram_eff=0.2521
bk0: 0a 44702469i bk1: 0a 44702473i bk2: 0a 44702474i bk3: 0a 44702477i bk4: 16a 44702424i bk5: 16a 44702451i bk6: 48a 44702386i bk7: 48a 44702376i bk8: 48a 44702407i bk9: 48a 44702419i bk10: 48a 44702390i bk11: 48a 44702396i bk12: 48a 44702425i bk13: 48a 44702396i bk14: 48a 44702377i bk15: 48a 44702401i 

------------------------------------------------------------------------

Row_Buffer_Locality = 0.976562
Row_Buffer_Locality_read = 0.976562
Row_Buffer_Locality_write = -nan
Bank_Level_Parallism = 1.102124
Bank_Level_Parallism_Col = 1.074774
Bank_Level_Parallism_Ready = 1.003891
write_to_read_ratio_blp_rw_average = 0.000000
GrpLevelPara = 1.039441 

BW Util details:
bwutil = 0.000046 
total_CMD = 44702474 
util_bw = 2048 
Wasted_Col = 413 
Wasted_Row = 0 
Idle = 44700013 

BW Util Bottlenecks: 
RCDc_limit = 206 
RCDWRc_limit = 0 
WTRc_limit = 0 
RTWc_limit = 0 
CCDLc_limit = 251 
rwq = 0 
CCDLc_limit_alone = 251 
WTRc_limit_alone = 0 
RTWc_limit_alone = 0 

Commands details: 
total_CMD = 44702474 
n_nop = 44701951 
Read = 512 
Write = 0 
L2_Alloc = 0 
L2_WB = 0 
n_act = 12 
n_pre = 0 
n_ref = 0 
n_req = 512 
total_req = 512 

Dual Bus Interface Util: 
issued_total_row = 12 
issued_total_col = 512 
Row_Bus_Util =  0.000000 
CoL_Bus_Util = 0.000011 
Either_Row_CoL_Bus_Util = 0.000012 
Issued_on_Two_Bus_Simul_Util = 0.000000 
issued_two_Eff = 0.001912 
queue_avg = 0.000004 


dram_util_bins: 0 0 0 0 0 0 0 0 0 0
dram_eff_bins: 0 0 0 0 0 0 0 0 0 0
mrqq: max=2 avg=3.62396e-06
Memory Partition 9: 
Cache L2_bank_018:
MSHR contents

Cache L2_bank_019:
MSHR contents

In Dram Latency Queue (total = 0): 
DRAM[9]: 16 bks, busW=2 BL=16 CL=24, tRRD=12 tCCD=4, tRCD=24 tRAS=55 tRP=24 tRC=78
n_cmd=44702474 n_nop=44701950 n_act=12 n_pre=0 n_ref_event=0 n_req=512 n_rd=512 n_rd_L2_A=0 n_write=0 n_wr_bk=0 bw_util=4.581e-05
n_activity=8215 dram_eff=0.2493
bk0: 0a 44702472i bk1: 0a 44702475i bk2: 0a 44702476i bk3: 0a 44702477i bk4: 16a 44702444i bk5: 16a 44702441i bk6: 48a 44702378i bk7: 48a 44702419i bk8: 48a 44702379i bk9: 48a 44702403i bk10: 48a 44702392i bk11: 48a 44702403i bk12: 48a 44702383i bk13: 48a 44702378i bk14: 48a 44702379i bk15: 48a 44702419i 

------------------------------------------------------------------------

Row_Buffer_Locality = 0.976562
Row_Buffer_Locality_read = 0.976562
Row_Buffer_Locality_write = -nan
Bank_Level_Parallism = 1.052955
Bank_Level_Parallism_Col = 1.035521
Bank_Level_Parallism_Ready = 1.000000
write_to_read_ratio_blp_rw_average = 0.000000
GrpLevelPara = 1.027799 

BW Util details:
bwutil = 0.000046 
total_CMD = 44702474 
util_bw = 2048 
Wasted_Col = 473 
Wasted_Row = 0 
Idle = 44699953 

BW Util Bottlenecks: 
RCDc_limit = 241 
RCDWRc_limit = 0 
WTRc_limit = 0 
RTWc_limit = 0 
CCDLc_limit = 270 
rwq = 0 
CCDLc_limit_alone = 270 
WTRc_limit_alone = 0 
RTWc_limit_alone = 0 

Commands details: 
total_CMD = 44702474 
n_nop = 44701950 
Read = 512 
Write = 0 
L2_Alloc = 0 
L2_WB = 0 
n_act = 12 
n_pre = 0 
n_ref = 0 
n_req = 512 
total_req = 512 

Dual Bus Interface Util: 
issued_total_row = 12 
issued_total_col = 512 
Row_Bus_Util =  0.000000 
CoL_Bus_Util = 0.000011 
Either_Row_CoL_Bus_Util = 0.000012 
Issued_on_Two_Bus_Simul_Util = 0.000000 
issued_two_Eff = 0.000000 
queue_avg = 0.000006 


dram_util_bins: 0 0 0 0 0 0 0 0 0 0
dram_eff_bins: 0 0 0 0 0 0 0 0 0 0
mrqq: max=3 avg=6.28601e-06
Memory Partition 10: 
Cache L2_bank_020:
MSHR contents

Cache L2_bank_021:
MSHR contents

In Dram Latency Queue (total = 0): 
DRAM[10]: 16 bks, busW=2 BL=16 CL=24, tRRD=12 tCCD=4, tRCD=24 tRAS=55 tRP=24 tRC=78
n_cmd=44702474 n_nop=44701950 n_act=12 n_pre=0 n_ref_event=0 n_req=512 n_rd=512 n_rd_L2_A=0 n_write=0 n_wr_bk=0 bw_util=4.581e-05
n_activity=8112 dram_eff=0.2525
bk0: 0a 44702470i bk1: 0a 44702472i bk2: 0a 44702475i bk3: 0a 44702479i bk4: 16a 44702438i bk5: 16a 44702452i bk6: 48a 44702385i bk7: 48a 44702383i bk8: 48a 44702397i bk9: 48a 44702397i bk10: 48a 44702398i bk11: 48a 44702405i bk12: 48a 44702392i bk13: 48a 44702412i bk14: 48a 44702412i bk15: 48a 44702412i 

------------------------------------------------------------------------

Row_Buffer_Locality = 0.976562
Row_Buffer_Locality_read = 0.976562
Row_Buffer_Locality_write = -nan
Bank_Level_Parallism = 1.103448
Bank_Level_Parallism_Col = 1.074262
Bank_Level_Parallism_Ready = 1.000000
write_to_read_ratio_blp_rw_average = 0.000000
GrpLevelPara = 1.041350 

BW Util details:
bwutil = 0.000046 
total_CMD = 44702474 
util_bw = 2048 
Wasted_Col = 399 
Wasted_Row = 0 
Idle = 44700027 

BW Util Bottlenecks: 
RCDc_limit = 223 
RCDWRc_limit = 0 
WTRc_limit = 0 
RTWc_limit = 0 
CCDLc_limit = 251 
rwq = 0 
CCDLc_limit_alone = 251 
WTRc_limit_alone = 0 
RTWc_limit_alone = 0 

Commands details: 
total_CMD = 44702474 
n_nop = 44701950 
Read = 512 
Write = 0 
L2_Alloc = 0 
L2_WB = 0 
n_act = 12 
n_pre = 0 
n_ref = 0 
n_req = 512 
total_req = 512 

Dual Bus Interface Util: 
issued_total_row = 12 
issued_total_col = 512 
Row_Bus_Util =  0.000000 
CoL_Bus_Util = 0.000011 
Either_Row_CoL_Bus_Util = 0.000012 
Issued_on_Two_Bus_Simul_Util = 0.000000 
issued_two_Eff = 0.000000 
queue_avg = 0.000004 


dram_util_bins: 0 0 0 0 0 0 0 0 0 0
dram_eff_bins: 0 0 0 0 0 0 0 0 0 0
mrqq: max=2 avg=4.3398e-06
Memory Partition 11: 
Cache L2_bank_022:
MSHR contents

Cache L2_bank_023:
MSHR contents

In Dram Latency Queue (total = 0): 
DRAM[11]: 16 bks, busW=2 BL=16 CL=24, tRRD=12 tCCD=4, tRCD=24 tRAS=55 tRP=24 tRC=78
n_cmd=44702474 n_nop=44701950 n_act=12 n_pre=0 n_ref_event=0 n_req=512 n_rd=512 n_rd_L2_A=0 n_write=0 n_wr_bk=0 bw_util=4.581e-05
n_activity=8105 dram_eff=0.2527
bk0: 0a 44702471i bk1: 0a 44702474i bk2: 0a 44702475i bk3: 0a 44702475i bk4: 16a 44702443i bk5: 16a 44702446i bk6: 48a 44702405i bk7: 48a 44702424i bk8: 48a 44702391i bk9: 48a 44702393i bk10: 48a 44702362i bk11: 48a 44702392i bk12: 48a 44702402i bk13: 48a 44702396i bk14: 48a 44702381i bk15: 48a 44702406i 

------------------------------------------------------------------------

Row_Buffer_Locality = 0.976562
Row_Buffer_Locality_read = 0.976562
Row_Buffer_Locality_write = -nan
Bank_Level_Parallism = 1.048025
Bank_Level_Parallism_Col = 1.040530
Bank_Level_Parallism_Ready = 1.001953
write_to_read_ratio_blp_rw_average = 0.000000
GrpLevelPara = 1.020265 

BW Util details:
bwutil = 0.000046 
total_CMD = 44702474 
util_bw = 2048 
Wasted_Col = 474 
Wasted_Row = 0 
Idle = 44699952 

BW Util Bottlenecks: 
RCDc_limit = 245 
RCDWRc_limit = 0 
WTRc_limit = 0 
RTWc_limit = 0 
CCDLc_limit = 272 
rwq = 0 
CCDLc_limit_alone = 272 
WTRc_limit_alone = 0 
RTWc_limit_alone = 0 

Commands details: 
total_CMD = 44702474 
n_nop = 44701950 
Read = 512 
Write = 0 
L2_Alloc = 0 
L2_WB = 0 
n_act = 12 
n_pre = 0 
n_ref = 0 
n_req = 512 
total_req = 512 

Dual Bus Interface Util: 
issued_total_row = 12 
issued_total_col = 512 
Row_Bus_Util =  0.000000 
CoL_Bus_Util = 0.000011 
Either_Row_CoL_Bus_Util = 0.000012 
Issued_on_Two_Bus_Simul_Util = 0.000000 
issued_two_Eff = 0.000000 
queue_avg = 0.000004 


dram_util_bins: 0 0 0 0 0 0 0 0 0 0
dram_eff_bins: 0 0 0 0 0 0 0 0 0 0
mrqq: max=1 avg=3.60159e-06

========= L2 cache stats =========
L2_cache_bank[0]: Access = 112652, Miss = 680, Miss_rate = 0.006, Pending_hits = 0, Reservation_fails = 0
L2_cache_bank[1]: Access = 113321, Miss = 680, Miss_rate = 0.006, Pending_hits = 0, Reservation_fails = 0
L2_cache_bank[2]: Access = 114903, Miss = 680, Miss_rate = 0.006, Pending_hits = 0, Reservation_fails = 0
L2_cache_bank[3]: Access = 114867, Miss = 680, Miss_rate = 0.006, Pending_hits = 0, Reservation_fails = 0
L2_cache_bank[4]: Access = 111251, Miss = 680, Miss_rate = 0.006, Pending_hits = 0, Reservation_fails = 0
L2_cache_bank[5]: Access = 112996, Miss = 680, Miss_rate = 0.006, Pending_hits = 0, Reservation_fails = 0
L2_cache_bank[6]: Access = 114128, Miss = 680, Miss_rate = 0.006, Pending_hits = 0, Reservation_fails = 0
L2_cache_bank[7]: Access = 113247, Miss = 680, Miss_rate = 0.006, Pending_hits = 0, Reservation_fails = 0
L2_cache_bank[8]: Access = 113340, Miss = 684, Miss_rate = 0.006, Pending_hits = 0, Reservation_fails = 0
L2_cache_bank[9]: Access = 114837, Miss = 684, Miss_rate = 0.006, Pending_hits = 0, Reservation_fails = 0
L2_cache_bank[10]: Access = 115237, Miss = 684, Miss_rate = 0.006, Pending_hits = 0, Reservation_fails = 0
L2_cache_bank[11]: Access = 113134, Miss = 684, Miss_rate = 0.006, Pending_hits = 0, Reservation_fails = 0
L2_cache_bank[12]: Access = 111401, Miss = 684, Miss_rate = 0.006, Pending_hits = 0, Reservation_fails = 0
L2_cache_bank[13]: Access = 113293, Miss = 684, Miss_rate = 0.006, Pending_hits = 0, Reservation_fails = 0
L2_cache_bank[14]: Access = 113003, Miss = 684, Miss_rate = 0.006, Pending_hits = 0, Reservation_fails = 0
L2_cache_bank[15]: Access = 112012, Miss = 684, Miss_rate = 0.006, Pending_hits = 0, Reservation_fails = 0
L2_cache_bank[16]: Access = 114331, Miss = 684, Miss_rate = 0.006, Pending_hits = 0, Reservation_fails = 0
L2_cache_bank[17]: Access = 115835, Miss = 684, Miss_rate = 0.006, Pending_hits = 0, Reservation_fails = 0
L2_cache_bank[18]: Access = 116059, Miss = 684, Miss_rate = 0.006, Pending_hits = 0, Reservation_fails = 0
L2_cache_bank[19]: Access = 113680, Miss = 684, Miss_rate = 0.006, Pending_hits = 0, Reservation_fails = 0
L2_cache_bank[20]: Access = 112847, Miss = 684, Miss_rate = 0.006, Pending_hits = 0, Reservation_fails = 0
L2_cache_bank[21]: Access = 114391, Miss = 684, Miss_rate = 0.006, Pending_hits = 0, Reservation_fails = 0
L2_cache_bank[22]: Access = 115353, Miss = 684, Miss_rate = 0.006, Pending_hits = 0, Reservation_fails = 0
L2_cache_bank[23]: Access = 113291, Miss = 684, Miss_rate = 0.006, Pending_hits = 0, Reservation_fails = 0
L2_total_cache_accesses = 2729409
L2_total_cache_misses = 16384
L2_total_cache_miss_rate = 0.0060
L2_total_cache_pending_hits = 0
L2_total_cache_reservation_fails = 0
L2_total_cache_breakdown:
	L2_cache_stats_breakdown[GLOBAL_ACC_R][HIT] = 13080
	L2_cache_stats_breakdown[GLOBAL_ACC_R][HIT_RESERVED] = 0
	L2_cache_stats_breakdown[GLOBAL_ACC_R][MISS] = 0
	L2_cache_stats_breakdown[GLOBAL_ACC_R][RESERVATION_FAIL] = 0
	L2_cache_stats_breakdown[GLOBAL_ACC_R][SECTOR_MISS] = 0
	L2_cache_stats_breakdown[GLOBAL_ACC_R][MSHR_HIT] = 0
	L2_cache_stats_breakdown[LOCAL_ACC_R][HIT] = 1025606
	L2_cache_stats_breakdown[LOCAL_ACC_R][HIT_RESERVED] = 0
	L2_cache_stats_breakdown[LOCAL_ACC_R][MISS] = 1536
	L2_cache_stats_breakdown[LOCAL_ACC_R][RESERVATION_FAIL] = 0
	L2_cache_stats_breakdown[LOCAL_ACC_R][SECTOR_MISS] = 4608
	L2_cache_stats_breakdown[LOCAL_ACC_R][MSHR_HIT] = 0
	L2_cache_stats_breakdown[CONST_ACC_R][HIT] = 0
	L2_cache_stats_breakdown[CONST_ACC_R][HIT_RESERVED] = 0
	L2_cache_stats_breakdown[CONST_ACC_R][MISS] = 0
	L2_cache_stats_breakdown[CONST_ACC_R][RESERVATION_FAIL] = 0
	L2_cache_stats_breakdown[CONST_ACC_R][SECTOR_MISS] = 0
	L2_cache_stats_breakdown[CONST_ACC_R][MSHR_HIT] = 0
	L2_cache_stats_breakdown[TEXTURE_ACC_R][HIT] = 0
	L2_cache_stats_breakdown[TEXTURE_ACC_R][HIT_RESERVED] = 0
	L2_cache_stats_breakdown[TEXTURE_ACC_R][MISS] = 0
	L2_cache_stats_breakdown[TEXTURE_ACC_R][RESERVATION_FAIL] = 0
	L2_cache_stats_breakdown[TEXTURE_ACC_R][SECTOR_MISS] = 0
	L2_cache_stats_breakdown[TEXTURE_ACC_R][MSHR_HIT] = 0
	L2_cache_stats_breakdown[GLOBAL_ACC_W][HIT] = 8192
	L2_cache_stats_breakdown[GLOBAL_ACC_W][HIT_RESERVED] = 0
	L2_cache_stats_breakdown[GLOBAL_ACC_W][MISS] = 2048
	L2_cache_stats_breakdown[GLOBAL_ACC_W][RESERVATION_FAIL] = 0
	L2_cache_stats_breakdown[GLOBAL_ACC_W][SECTOR_MISS] = 6144
	L2_cache_stats_breakdown[GLOBAL_ACC_W][MSHR_HIT] = 0
	L2_cache_stats_breakdown[LOCAL_ACC_W][HIT] = 1666147
	L2_cache_stats_breakdown[LOCAL_ACC_W][HIT_RESERVED] = 0
	L2_cache_stats_breakdown[LOCAL_ACC_W][MISS] = 512
	L2_cache_stats_breakdown[LOCAL_ACC_W][RESERVATION_FAIL] = 0
	L2_cache_stats_breakdown[LOCAL_ACC_W][SECTOR_MISS] = 1536
	L2_cache_stats_breakdown[LOCAL_ACC_W][MSHR_HIT] = 0
	L2_cache_stats_breakdown[L1_WRBK_ACC][HIT] = 0
	L2_cache_stats_breakdown[L1_WRBK_ACC][HIT_RESERVED] = 0
	L2_cache_stats_breakdown[L1_WRBK_ACC][MISS] = 0
	L2_cache_stats_breakdown[L1_WRBK_ACC][RESERVATION_FAIL] = 0
	L2_cache_stats_breakdown[L1_WRBK_ACC][SECTOR_MISS] = 0
	L2_cache_stats_breakdown[L1_WRBK_ACC][MSHR_HIT] = 0
	L2_cache_stats_breakdown[L2_WRBK_ACC][HIT] = 0
	L2_cache_stats_breakdown[L2_WRBK_ACC][HIT_RESERVED] = 0
	L2_cache_stats_breakdown[L2_WRBK_ACC][MISS] = 0
	L2_cache_stats_breakdown[L2_WRBK_ACC][RESERVATION_FAIL] = 0
	L2_cache_stats_breakdown[L2_WRBK_ACC][SECTOR_MISS] = 0
	L2_cache_stats_breakdown[L2_WRBK_ACC][MSHR_HIT] = 0
	L2_cache_stats_breakdown[INST_ACC_R][HIT] = 0
	L2_cache_stats_breakdown[INST_ACC_R][HIT_RESERVED] = 0
	L2_cache_stats_breakdown[INST_ACC_R][MISS] = 0
	L2_cache_stats_breakdown[INST_ACC_R][RESERVATION_FAIL] = 0
	L2_cache_stats_breakdown[INST_ACC_R][SECTOR_MISS] = 0
	L2_cache_stats_breakdown[INST_ACC_R][MSHR_HIT] = 0
	L2_cache_stats_breakdown[L1_WR_ALLOC_R][HIT] = 0
	L2_cache_stats_breakdown[L1_WR_ALLOC_R][HIT_RESERVED] = 0
	L2_cache_stats_breakdown[L1_WR_ALLOC_R][MISS] = 0
	L2_cache_stats_breakdown[L1_WR_ALLOC_R][RESERVATION_FAIL] = 0
	L2_cache_stats_breakdown[L1_WR_ALLOC_R][SECTOR_MISS] = 0
	L2_cache_stats_breakdown[L1_WR_ALLOC_R][MSHR_HIT] = 0
	L2_cache_stats_breakdown[L2_WR_ALLOC_R][HIT] = 0
	L2_cache_stats_breakdown[L2_WR_ALLOC_R][HIT_RESERVED] = 0
	L2_cache_stats_breakdown[L2_WR_ALLOC_R][MISS] = 0
	L2_cache_stats_breakdown[L2_WR_ALLOC_R][RESERVATION_FAIL] = 0
	L2_cache_stats_breakdown[L2_WR_ALLOC_R][SECTOR_MISS] = 0
	L2_cache_stats_breakdown[L2_WR_ALLOC_R][MSHR_HIT] = 0
	L2_cache_stats_breakdown[GLOBAL_ACC_R][TOTAL_ACCESS] = 13080
	L2_cache_stats_breakdown[LOCAL_ACC_R][TOTAL_ACCESS] = 1031750
	L2_cache_stats_breakdown[GLOBAL_ACC_W][TOTAL_ACCESS] = 16384
	L2_cache_stats_breakdown[LOCAL_ACC_W][TOTAL_ACCESS] = 1668195
L2_total_cache_reservation_fail_breakdown:
L2_cache_data_port_util = 0.006
L2_cache_fill_port_util = 0.000

icnt_total_pkts_mem_to_simt=2729409
icnt_total_pkts_simt_to_mem=2729409
LD_mem_lat_dist  0 0 0 0 0 0 0 0 0 0 0 0 0 0 0 0 0 0 0 0 0 0 0 0 0 0 0
ST_mem_lat_dist  0 0 0 0 0 0 0 0 0 0 0 0 0 0 0 0 0 0 0 0 0 0 0 0 0 0 0
----------------------------Interconnect-DETAILS--------------------------------
Req_Network_injected_packets_num = 2729409
Req_Network_cycles = 17431476
Req_Network_injected_packets_per_cycle =       0.1566 
Req_Network_conflicts_per_cycle =       0.0000
Req_Network_conflicts_per_cycle_util =       0.0000
Req_Bank_Level_Parallism =       1.0000
Req_Network_in_buffer_full_per_cycle =       0.0000
Req_Network_in_buffer_avg_util =       0.0000
Req_Network_out_buffer_full_per_cycle =       0.0000
Req_Network_out_buffer_avg_util =       0.0065

Reply_Network_injected_packets_num = 2729409
Reply_Network_cycles = 17431476
Reply_Network_injected_packets_per_cycle =        0.1566
Reply_Network_conflicts_per_cycle =        0.0157
Reply_Network_conflicts_per_cycle_util =       0.1000
Reply_Bank_Level_Parallism =       1.0000
Reply_Network_in_buffer_full_per_cycle =       0.0000
Reply_Network_in_buffer_avg_util =       0.0021
Reply_Network_out_buffer_full_per_cycle =       0.0000
Reply_Network_out_buffer_avg_util =       0.1566
----------------------------END-of-Interconnect-DETAILS-------------------------


gpgpu_simulation_time = 0 days, 0 hrs, 19 min, 40 sec (1180 sec)
gpgpu_simulation_rate = 168565 (inst/sec)
gpgpu_simulation_rate = 14772 (cycle/sec)
gpgpu_silicon_slowdown = 92404x
event update
GPGPU-Sim API: cudaEventSynchronize ** waiting for event
GPGPU-Sim API: cudaEventSynchronize ** event detected
GPGPU-Sim API: cudaEventSynchronize ** waiting for event
GPGPU-Sim API: cudaEventSynchronize ** event detected
[entropy_with_low_occupancy] iter 0: 819000.000000 ms elapsed, 819000.000000 ms min.
GPGPU-Sim: *** exit detected ***
