nohup: ignoring input


        *** GPGPU-Sim Simulator Version 4.2.0  [build gpgpu-sim_git-commit-_modified_0.0] ***


GPGPU-Sim PTX: simulation mode 0 (can change with PTX_SIM_MODE_FUNC environment variable:
               1=functional simulation only, 0=detailed performance simulator)
GPGPU-Sim PTX: overriding embedded ptx with ptx file (PTX_SIM_USE_PTX_FILE is set)
GPGPU-Sim: Configuration options:

-save_embedded_ptx                      0 # saves ptx files embedded in binary as <n>.ptx
-keep                                   0 # keep intermediate files created by GPGPU-Sim when interfacing with external programs
-gpgpu_ptx_save_converted_ptxplus                    0 # Saved converted ptxplus to a file
-gpgpu_occupancy_sm_number                   70 # The SM number to pass to ptxas when getting register usage for computing GPU occupancy. This parameter is required in the config.
-ptx_opcode_latency_int      4,13,4,5,145,21 # Opcode latencies for integers <ADD,MAX,MUL,MAD,DIV,SHFL>Default 1,1,19,25,145,32
-ptx_opcode_latency_fp          4,13,4,5,39 # Opcode latencies for single precision floating points <ADD,MAX,MUL,MAD,DIV>Default 1,1,1,1,30
-ptx_opcode_latency_dp         8,19,8,8,330 # Opcode latencies for double precision floating points <ADD,MAX,MUL,MAD,DIV>Default 8,8,8,8,335
-ptx_opcode_latency_sfu                  100 # Opcode latencies for SFU instructionsDefault 8
-ptx_opcode_latency_tesnor                   64 # Opcode latencies for Tensor instructionsDefault 64
-ptx_opcode_initiation_int          2,2,2,2,8,4 # Opcode initiation intervals for integers <ADD,MAX,MUL,MAD,DIV,SHFL>Default 1,1,4,4,32,4
-ptx_opcode_initiation_fp            2,2,2,2,4 # Opcode initiation intervals for single precision floating points <ADD,MAX,MUL,MAD,DIV>Default 1,1,1,1,5
-ptx_opcode_initiation_dp          4,4,4,4,130 # Opcode initiation intervals for double precision floating points <ADD,MAX,MUL,MAD,DIV>Default 8,8,8,8,130
-ptx_opcode_initiation_sfu                    8 # Opcode initiation intervals for sfu instructionsDefault 8
-ptx_opcode_initiation_tensor                   64 # Opcode initiation intervals for tensor instructionsDefault 64
-cdp_latency         7200,8000,100,12000,1600 # CDP API latency <cudaStreamCreateWithFlags, cudaGetParameterBufferV2_init_perWarp, cudaGetParameterBufferV2_perKernel, cudaLaunchDeviceV2_init_perWarp, cudaLaunchDevicV2_perKernel>Default 7200,8000,100,12000,1600
-network_mode                           2 # Interconnection network mode
-inter_config_file                   mesh # Interconnection network config file
-icnt_in_buffer_limit                  512 # in_buffer_limit
-icnt_out_buffer_limit                  512 # out_buffer_limit
-icnt_subnets                           2 # subnets
-icnt_arbiter_algo                      1 # arbiter_algo
-icnt_verbose                           0 # inct_verbose
-icnt_grant_cycles                      1 # grant_cycles
-gpgpu_ptx_use_cuobjdump                    1 # Use cuobjdump to extract ptx and sass from binaries
-gpgpu_experimental_lib_support                    0 # Try to extract code from cuda libraries [Broken because of unknown cudaGetExportTable]
-checkpoint_option                      0 #  checkpointing flag (0 = no checkpoint)
-checkpoint_kernel                      1 #  checkpointing during execution of which kernel (1- 1st kernel)
-checkpoint_CTA                         0 #  checkpointing after # of CTA (< less than total CTA)
-resume_option                          0 #  resume flag (0 = no resume)
-resume_kernel                          0 #  Resume from which kernel (1= 1st kernel)
-resume_CTA                             0 #  resume from which CTA 
-checkpoint_CTA_t                       0 #  resume from which CTA 
-checkpoint_insn_Y                      0 #  resume from which CTA 
-gpgpu_ptx_convert_to_ptxplus                    0 # Convert SASS (native ISA) to ptxplus and run ptxplus
-gpgpu_ptx_force_max_capability                   70 # Force maximum compute capability
-gpgpu_ptx_inst_debug_to_file                    0 # Dump executed instructions' debug information to file
-gpgpu_ptx_inst_debug_file       inst_debug.txt # Executed instructions' debug output file
-gpgpu_ptx_inst_debug_thread_uid                    1 # Thread UID for executed instructions' debug output
-gpgpu_simd_model                       1 # 1 = post-dominator
-gpgpu_shader_core_pipeline              2048:32 # shader core pipeline config, i.e., {<nthread>:<warpsize>}
-gpgpu_tex_cache:l1  N:4:128:256,L:R:m:N:L,T:512:8,128:2 # per-shader L1 texture cache  (READ-ONLY) config  {<nsets>:<bsize>:<assoc>,<rep>:<wr>:<alloc>:<wr_alloc>,<mshr>:<N>:<merge>,<mq>:<rf>}
-gpgpu_const_cache:l1 N:128:64:8,L:R:f:N:L,S:2:64,4 # per-shader L1 constant memory cache  (READ-ONLY) config  {<nsets>:<bsize>:<assoc>,<rep>:<wr>:<alloc>:<wr_alloc>,<mshr>:<N>:<merge>,<mq>} 
-gpgpu_cache:il1     N:64:128:16,L:R:f:N:L,S:2:48,4 # shader L1 instruction cache config  {<nsets>:<bsize>:<assoc>,<rep>:<wr>:<alloc>:<wr_alloc>,<mshr>:<N>:<merge>,<mq>} 
-gpgpu_cache:dl1     S:4:128:64,L:T:m:L:L,A:512:8,16:0,32 # per-shader L1 data cache config  {<nsets>:<bsize>:<assoc>,<rep>:<wr>:<alloc>:<wr_alloc>,<mshr>:<N>:<merge>,<mq> | none}
-gpgpu_l1_cache_write_ratio                   25 # L1D write ratio
-gpgpu_l1_banks                         4 # The number of L1 cache banks
-gpgpu_l1_banks_byte_interleaving                   32 # l1 banks byte interleaving granularity
-gpgpu_l1_banks_hashing_function                    0 # l1 banks hashing function
-gpgpu_l1_latency                      20 # L1 Hit Latency
-gpgpu_smem_latency                    20 # smem Latency
-gpgpu_cache:dl1PrefL1                 none # per-shader L1 data cache config  {<nsets>:<bsize>:<assoc>,<rep>:<wr>:<alloc>:<wr_alloc>,<mshr>:<N>:<merge>,<mq> | none}
-gpgpu_cache:dl1PrefShared                 none # per-shader L1 data cache config  {<nsets>:<bsize>:<assoc>,<rep>:<wr>:<alloc>:<wr_alloc>,<mshr>:<N>:<merge>,<mq> | none}
-gpgpu_gmem_skip_L1D                    0 # global memory access skip L1D cache (implements -Xptxas -dlcm=cg, default=no skip)
-gpgpu_perfect_mem                      0 # enable perfect memory mode (no cache miss)
-n_regfile_gating_group                    4 # group of lanes that should be read/written together)
-gpgpu_clock_gated_reg_file                    0 # enable clock gated reg file for power calculations
-gpgpu_clock_gated_lanes                    1 # enable clock gated lanes for power calculations
-gpgpu_shader_registers                65536 # Number of registers per shader core. Limits number of concurrent CTAs. (default 8192)
-gpgpu_registers_per_block                65536 # Maximum number of registers per CTA. (default 8192)
-gpgpu_ignore_resources_limitation                    0 # gpgpu_ignore_resources_limitation (default 0)
-gpgpu_shader_cta                      32 # Maximum number of concurrent CTAs in shader (default 32)
-gpgpu_num_cta_barriers                   16 # Maximum number of named barriers per CTA (default 16)
-gpgpu_n_clusters                       1 # number of processing clusters
-gpgpu_n_cores_per_cluster                    1 # number of simd cores per cluster
-gpgpu_n_cluster_ejection_buffer_size                   32 # number of packets in ejection buffer
-gpgpu_n_ldst_response_buffer_size                    2 # number of response packets in ld/st unit ejection buffer
-gpgpu_shmem_per_block                65536 # Size of shared memory per thread block or CTA (default 48kB)
-gpgpu_shmem_size                   98304 # Size of shared memory per shader core (default 16kB)
-gpgpu_shmem_option       0,8,16,32,64,96 # Option list of shared memory sizes
-gpgpu_unified_l1d_size                  128 # Size of unified data cache(L1D + shared memory) in KB
-gpgpu_adaptive_cache_config                    1 # adaptive_cache_config
-gpgpu_shmem_sizeDefault                98304 # Size of shared memory per shader core (default 16kB)
-gpgpu_shmem_size_PrefL1                16384 # Size of shared memory per shader core (default 16kB)
-gpgpu_shmem_size_PrefShared                16384 # Size of shared memory per shader core (default 16kB)
-gpgpu_shmem_num_banks                   32 # Number of banks in the shared memory in each shader core (default 16)
-gpgpu_shmem_limited_broadcast                    0 # Limit shared memory to do one broadcast per cycle (default on)
-gpgpu_shmem_warp_parts                    1 # Number of portions a warp is divided into for shared memory bank conflict check 
-gpgpu_mem_unit_ports                    1 # The number of memory transactions allowed per core cycle
-gpgpu_shmem_warp_parts                    1 # Number of portions a warp is divided into for shared memory bank conflict check 
-gpgpu_warpdistro_shader                   -1 # Specify which shader core to collect the warp size distribution from
-gpgpu_warp_issue_shader                    0 # Specify which shader core to collect the warp issue distribution from
-gpgpu_local_mem_map                    1 # Mapping from local memory space address to simulated GPU physical address space (default = enabled)
-gpgpu_num_reg_banks                   16 # Number of register banks (default = 8)
-gpgpu_reg_bank_use_warp_id                    0 # Use warp ID in mapping registers to banks (default = off)
-gpgpu_sub_core_model                    1 # Sub Core Volta/Pascal model (default = off)
-gpgpu_enable_specialized_operand_collector                    0 # enable_specialized_operand_collector
-gpgpu_operand_collector_num_units_sp                    4 # number of collector units (default = 4)
-gpgpu_operand_collector_num_units_dp                    0 # number of collector units (default = 0)
-gpgpu_operand_collector_num_units_sfu                    4 # number of collector units (default = 4)
-gpgpu_operand_collector_num_units_int                    0 # number of collector units (default = 0)
-gpgpu_operand_collector_num_units_tensor_core                    4 # number of collector units (default = 4)
-gpgpu_operand_collector_num_units_mem                    2 # number of collector units (default = 2)
-gpgpu_operand_collector_num_units_gen                    8 # number of collector units (default = 0)
-gpgpu_operand_collector_num_in_ports_sp                    1 # number of collector unit in ports (default = 1)
-gpgpu_operand_collector_num_in_ports_dp                    0 # number of collector unit in ports (default = 0)
-gpgpu_operand_collector_num_in_ports_sfu                    1 # number of collector unit in ports (default = 1)
-gpgpu_operand_collector_num_in_ports_int                    0 # number of collector unit in ports (default = 0)
-gpgpu_operand_collector_num_in_ports_tensor_core                    1 # number of collector unit in ports (default = 1)
-gpgpu_operand_collector_num_in_ports_mem                    1 # number of collector unit in ports (default = 1)
-gpgpu_operand_collector_num_in_ports_gen                    8 # number of collector unit in ports (default = 0)
-gpgpu_operand_collector_num_out_ports_sp                    1 # number of collector unit in ports (default = 1)
-gpgpu_operand_collector_num_out_ports_dp                    0 # number of collector unit in ports (default = 0)
-gpgpu_operand_collector_num_out_ports_sfu                    1 # number of collector unit in ports (default = 1)
-gpgpu_operand_collector_num_out_ports_int                    0 # number of collector unit in ports (default = 0)
-gpgpu_operand_collector_num_out_ports_tensor_core                    1 # number of collector unit in ports (default = 1)
-gpgpu_operand_collector_num_out_ports_mem                    1 # number of collector unit in ports (default = 1)
-gpgpu_operand_collector_num_out_ports_gen                    8 # number of collector unit in ports (default = 0)
-gpgpu_coalesce_arch                   70 # Coalescing arch (GT200 = 13, Fermi = 20)
-gpgpu_num_sched_per_core                    4 # Number of warp schedulers per core
-gpgpu_max_insn_issue_per_warp                    1 # Max number of instructions that can be issued per warp in one cycle by scheduler (either 1 or 2)
-gpgpu_dual_issue_diff_exec_units                    1 # should dual issue use two different execution unit resources (Default = 1)
-gpgpu_simt_core_sim_order                    1 # Select the simulation order of cores in a cluster (0=Fix, 1=Round-Robin)
-gpgpu_pipeline_widths 4,4,4,4,4,4,4,4,4,4,8,4,4 # Pipeline widths ID_OC_SP,ID_OC_DP,ID_OC_INT,ID_OC_SFU,ID_OC_MEM,OC_EX_SP,OC_EX_DP,OC_EX_INT,OC_EX_SFU,OC_EX_MEM,EX_WB,ID_OC_TENSOR_CORE,OC_EX_TENSOR_CORE
-gpgpu_tensor_core_avail                    1 # Tensor Core Available (default=0)
-gpgpu_num_sp_units                     4 # Number of SP units (default=1)
-gpgpu_num_dp_units                     4 # Number of DP units (default=0)
-gpgpu_num_int_units                    4 # Number of INT units (default=0)
-gpgpu_num_sfu_units                    4 # Number of SF units (default=1)
-gpgpu_num_tensor_core_units                    4 # Number of tensor_core units (default=1)
-gpgpu_num_mem_units                    1 # Number if ldst units (default=1) WARNING: not hooked up to anything
-gpgpu_scheduler                      lrr # Scheduler configuration: < lrr | gto | two_level_active > If two_level_active:<num_active_warps>:<inner_prioritization>:<outer_prioritization>For complete list of prioritization values see shader.h enum scheduler_prioritization_typeDefault: gto
-gpgpu_concurrent_kernel_sm                    0 # Support concurrent kernels on a SM (default = disabled)
-gpgpu_perfect_inst_const_cache                    1 # perfect inst and const cache mode, so all inst and const hits in the cache(default = disabled)
-gpgpu_inst_fetch_throughput                    4 # the number of fetched intruction per warp each cycle
-gpgpu_reg_file_port_throughput                    2 # the number ports of the register file
-specialized_unit_1         0,4,4,4,4,BRA # specialized unit config {<enabled>,<num_units>:<latency>:<initiation>,<ID_OC_SPEC>:<OC_EX_SPEC>,<NAME>}
-specialized_unit_2         0,4,4,4,4,BRA # specialized unit config {<enabled>,<num_units>:<latency>:<initiation>,<ID_OC_SPEC>:<OC_EX_SPEC>,<NAME>}
-specialized_unit_3         0,4,4,4,4,BRA # specialized unit config {<enabled>,<num_units>:<latency>:<initiation>,<ID_OC_SPEC>:<OC_EX_SPEC>,<NAME>}
-specialized_unit_4         0,4,4,4,4,BRA # specialized unit config {<enabled>,<num_units>:<latency>:<initiation>,<ID_OC_SPEC>:<OC_EX_SPEC>,<NAME>}
-specialized_unit_5         0,4,4,4,4,BRA # specialized unit config {<enabled>,<num_units>:<latency>:<initiation>,<ID_OC_SPEC>:<OC_EX_SPEC>,<NAME>}
-specialized_unit_6         0,4,4,4,4,BRA # specialized unit config {<enabled>,<num_units>:<latency>:<initiation>,<ID_OC_SPEC>:<OC_EX_SPEC>,<NAME>}
-specialized_unit_7         0,4,4,4,4,BRA # specialized unit config {<enabled>,<num_units>:<latency>:<initiation>,<ID_OC_SPEC>:<OC_EX_SPEC>,<NAME>}
-specialized_unit_8         0,4,4,4,4,BRA # specialized unit config {<enabled>,<num_units>:<latency>:<initiation>,<ID_OC_SPEC>:<OC_EX_SPEC>,<NAME>}
-gpgpu_perf_sim_memcpy                    1 # Fill the L2 cache on memcpy
-gpgpu_simple_dram_model                    0 # simple_dram_model with fixed latency and BW
-gpgpu_dram_scheduler                    1 # 0 = fifo, 1 = FR-FCFS (defaul)
-gpgpu_dram_partition_queues          64:64:64:64 # i2$:$2d:d2$:$2i
-l2_ideal                               0 # Use a ideal L2 cache that always hit
-gpgpu_cache:dl2     S:32:128:24,L:B:m:L:P,A:192:4,32:0,32 # unified banked L2 data cache config  {<nsets>:<bsize>:<assoc>,<rep>:<wr>:<alloc>:<wr_alloc>,<mshr>:<N>:<merge>,<mq>}
-gpgpu_cache:dl2_texture_only                    0 # L2 cache used for texture only
-gpgpu_n_mem                           32 # number of memory modules (e.g. memory controllers) in gpu
-gpgpu_n_sub_partition_per_mchannel                    2 # number of memory subpartition in each memory module
-gpgpu_n_mem_per_ctrlr                    1 # number of memory chips per memory controller
-gpgpu_memlatency_stat                   14 # track and display latency statistics 0x2 enables MC, 0x4 enables queue logs
-gpgpu_frfcfs_dram_sched_queue_size                   64 # 0 = unlimited (default); # entries per chip
-gpgpu_dram_return_queue_size                  192 # 0 = unlimited (default); # entries per chip
-gpgpu_dram_buswidth                   16 # default = 4 bytes (8 bytes per cycle at DDR)
-gpgpu_dram_burst_length                    2 # Burst length of each DRAM request (default = 4 data bus cycle)
-dram_data_command_freq_ratio                    2 # Frequency ratio between DRAM data bus and command bus (default = 2 times, i.e. DDR)
-gpgpu_dram_timing_opt nbk=16:CCD=1:RRD=3:RCD=12:RAS=28:RP=12:RC=40: CL=12:WL=2:CDLR=3:WR=10:nbkgrp=4:CCDL=2:RTPL=3 # DRAM timing parameters = {nbk:tCCD:tRRD:tRCD:tRAS:tRP:tRC:CL:WL:tCDLR:tWR:nbkgrp:tCCDL:tRTPL}
-gpgpu_l2_rop_latency                  160 # ROP queue latency (default 85)
-dram_latency                         100 # DRAM latency (default 30)
-dram_dual_bus_interface                    1 # dual_bus_interface (default = 0) 
-dram_bnk_indexing_policy                    0 # dram_bnk_indexing_policy (0 = normal indexing, 1 = Xoring with the higher bits) (Default = 0)
-dram_bnkgrp_indexing_policy                    1 # dram_bnkgrp_indexing_policy (0 = take higher bits, 1 = take lower bits) (Default = 0)
-dram_seperate_write_queue_enable                    0 # Seperate_Write_Queue_Enable
-dram_write_queue_size             32:28:16 # Write_Queue_Size
-dram_elimnate_rw_turnaround                    0 # elimnate_rw_turnaround i.e set tWTR and tRTW = 0
-icnt_flit_size                        40 # icnt_flit_size
-gpgpu_mem_addr_mapping dramid@8;00000000.00000000.00000000.00000000.0000RRRR.RRRRRRRR.RBBBCCCB.CCCSSSSS # mapping memory address to dram model {dramid@<start bit>;<memory address map>}
-gpgpu_mem_addr_test                    0 # run sweep test to check address mapping for aliased address
-gpgpu_mem_address_mask                    1 # 0 = old addressing mask, 1 = new addressing mask, 2 = new add. mask + flipped bank sel and chip sel bits
-gpgpu_memory_partition_indexing                    2 # 0 = no indexing, 1 = bitwise xoring, 2 = IPoly, 3 = custom indexing
-accelwattch_xml_file accelwattch_sass_sim.xml # AccelWattch XML file
-power_simulation_enabled                    0 # Turn on power simulator (1=On, 0=Off)
-power_per_cycle_dump                    0 # Dump detailed power output each cycle
-hw_perf_file_name            hw_perf.csv # Hardware Performance Statistics file
-hw_perf_bench_name                       # Kernel Name in Hardware Performance Statistics file
-power_simulation_mode                    0 # Switch performance counter input for power simulation (0=Sim, 1=HW, 2=HW-Sim Hybrid)
-dvfs_enabled                           0 # Turn on DVFS for power model
-aggregate_power_stats                    0 # Accumulate power across all kernels
-accelwattch_hybrid_perfsim_L1_RH                    0 # Get L1 Read Hits for Accelwattch-Hybrid from Accel-Sim
-accelwattch_hybrid_perfsim_L1_RM                    0 # Get L1 Read Misses for Accelwattch-Hybrid from Accel-Sim
-accelwattch_hybrid_perfsim_L1_WH                    0 # Get L1 Write Hits for Accelwattch-Hybrid from Accel-Sim
-accelwattch_hybrid_perfsim_L1_WM                    0 # Get L1 Write Misses for Accelwattch-Hybrid from Accel-Sim
-accelwattch_hybrid_perfsim_L2_RH                    0 # Get L2 Read Hits for Accelwattch-Hybrid from Accel-Sim
-accelwattch_hybrid_perfsim_L2_RM                    0 # Get L2 Read Misses for Accelwattch-Hybrid from Accel-Sim
-accelwattch_hybrid_perfsim_L2_WH                    0 # Get L2 Write Hits for Accelwattch-Hybrid from Accel-Sim
-accelwattch_hybrid_perfsim_L2_WM                    0 # Get L2 Write Misses for Accelwattch-Hybrid from Accel-Sim
-accelwattch_hybrid_perfsim_CC_ACC                    0 # Get Constant Cache Acesses for Accelwattch-Hybrid from Accel-Sim
-accelwattch_hybrid_perfsim_SHARED_ACC                    0 # Get Shared Memory Acesses for Accelwattch-Hybrid from Accel-Sim
-accelwattch_hybrid_perfsim_DRAM_RD                    0 # Get DRAM Reads for Accelwattch-Hybrid from Accel-Sim
-accelwattch_hybrid_perfsim_DRAM_WR                    0 # Get DRAM Writes for Accelwattch-Hybrid from Accel-Sim
-accelwattch_hybrid_perfsim_NOC                    0 # Get Interconnect Acesses for Accelwattch-Hybrid from Accel-Sim
-accelwattch_hybrid_perfsim_PIPE_DUTY                    0 # Get Pipeline Duty Cycle Acesses for Accelwattch-Hybrid from Accel-Sim
-accelwattch_hybrid_perfsim_NUM_SM_IDLE                    0 # Get Number of Idle SMs for Accelwattch-Hybrid from Accel-Sim
-accelwattch_hybrid_perfsim_CYCLES                    0 # Get Executed Cycles for Accelwattch-Hybrid from Accel-Sim
-accelwattch_hybrid_perfsim_VOLTAGE                    0 # Get Chip Voltage for Accelwattch-Hybrid from Accel-Sim
-power_trace_enabled                    0 # produce a file for the power trace (1=On, 0=Off)
-power_trace_zlevel                     6 # Compression level of the power trace output log (0=no comp, 9=highest)
-steady_power_levels_enabled                    0 # produce a file for the steady power levels (1=On, 0=Off)
-steady_state_definition                  8:4 # allowed deviation:number of samples
-gpgpu_max_cycle                        0 # terminates gpu simulation early (0 = no limit)
-gpgpu_max_insn                         0 # terminates gpu simulation early (0 = no limit)
-gpgpu_max_cta                          0 # terminates gpu simulation early (0 = no limit)
-gpgpu_max_completed_cta                    0 # terminates gpu simulation early (0 = no limit)
-gpgpu_runtime_stat                   500 # display runtime statistics such as dram utilization {<freq>:<flag>}
-liveness_message_freq                    1 # Minimum number of seconds between simulation liveness messages (0 = always print)
-gpgpu_compute_capability_major                    7 # Major compute capability version number
-gpgpu_compute_capability_minor                    0 # Minor compute capability version number
-gpgpu_flush_l1_cache                    1 # Flush L1 cache at the end of each kernel call
-gpgpu_flush_l2_cache                    0 # Flush L2 cache at the end of each kernel call
-gpgpu_deadlock_detect                    1 # Stop the simulation at deadlock (1=on (default), 0=off)
-gpgpu_ptx_instruction_classification                    0 # if enabled will classify ptx instruction types per kernel (Max 255 kernels now)
-gpgpu_ptx_sim_mode                     0 # Select between Performance (default) or Functional simulation (1)
-gpgpu_clock_domains 1447.0:1447.0:1447.0:850.0 # Clock Domain Frequencies in MhZ {<Core Clock>:<ICNT Clock>:<L2 Clock>:<DRAM Clock>}
-gpgpu_max_concurrent_kernel                  128 # maximum kernels that can run concurrently on GPU, set this value according to max resident grids for your compute capability
-gpgpu_cflog_interval                    0 # Interval between each snapshot in control flow logger
-visualizer_enabled                     0 # Turn on visualizer output (1=On, 0=Off)
-visualizer_outputfile                 NULL # Specifies the output log file for visualizer
-visualizer_zlevel                      6 # Compression level of the visualizer output log (0=no comp, 9=highest)
-gpgpu_stack_size_limit                 1024 # GPU thread stack size
-gpgpu_heap_size_limit              8388608 # GPU malloc heap size 
-gpgpu_runtime_sync_depth_limit                    2 # GPU device runtime synchronize depth
-gpgpu_runtime_pending_launch_count_limit                 2048 # GPU device runtime pending launch count
-trace_enabled                          0 # Turn on traces
-trace_components                    none # comma seperated list of traces to enable. Complete list found in trace_streams.tup. Default none
-trace_sampling_core                    0 # The core which is printed using CORE_DPRINTF. Default 0
-trace_sampling_memory_partition                   -1 # The memory partition which is printed using MEMPART_DPRINTF. Default -1 (i.e. all)
-enable_ptx_file_line_stats                    1 # Turn on PTX source line statistic profiling. (1 = On)
-ptx_line_stats_filename gpgpu_inst_stats.txt # Output file for PTX source line statistics.
-gpgpu_kernel_launch_latency                 5000 # Kernel launch latency in cycles. Default: 0
-gpgpu_cdp_enabled                      0 # Turn on CDP
-gpgpu_TB_launch_latency                    0 # thread block launch latency in cycles. Default: 0
DRAM Timing Options:
nbk                                    16 # number of banks
CCD                                     1 # column to column delay
RRD                                     3 # minimal delay between activation of rows i2264f3e07539e8c9dbdbf1a6e5acc810  /mnt/sda/2022-0526/home/gtyinstinct/CUDA_code/L2-sim/bin/RAY
Extracting PTX file and ptxas options    1: RAY.1.sm_70.ptx -arch=sm_70
n different banks
RCD                                    12 # row to column delay
RAS                                    28 # time needed to activate row
RP                                     12 # time needed to precharge (deactivate) row
RC                                     40 # row cycle time
CDLR                                    3 # switching from write to read (changes tWTR)
WR                                     10 # last data-in to row precharge
CL                                     12 # CAS latency
WL                                      2 # Write latency
nbkgrp                                  4 # number of bank groups
CCDL                                    2 # column to column delay between accesses to different bank groups
RTPL                                    3 # read to precharge delay between accesses to different bank groups
Total number of memory sub partition = 64
addr_dec_mask[CHIP]  = 0000000000001f00 	high:13 low:8
addr_dec_mask[BK]    = 00000000000e2000 	high:20 low:13
addr_dec_mask[ROW]   = 00000001fff00000 	high:33 low:20
addr_dec_mask[COL]   = 000000000001c0ff 	high:17 low:0
addr_dec_mask[BURST] = 000000000000001f 	high:5 low:0
sub_partition_id_mask = 0000000000002000
GPGPU-Sim uArch: clock freqs: 1447000000.000000:1447000000.000000:1447000000.000000:850000000.000000
GPGPU-Sim uArch: clock periods: 0.00000000069108500346:0.00000000069108500346:0.00000000069108500346:0.00000000117647058824
*** Initializing Memory Statistics ***
GPGPU-Sim uArch: performance model initialization complete.
self exe links to: /mnt/sda/2022-0526/home/gtyinstinct/CUDA_code/L2-sim/bin/RAY
self exe links to: /mnt/sda/2022-0526/home/gtyinstinct/CUDA_code/L2-sim/bin/RAY
11.0
GPGPU-Sim PTX: __cudaRegisterFatBinary, fat_cubin_handle = 1, filename=default
self exe links to: /mnt/sda/2022-0526/home/gtyinstinct/CUDA_code/L2-sim/bin/RAY
Running md5sum using "md5sum /mnt/sda/2022-0526/home/gtyinstinct/CUDA_code/L2-sim/bin/RAY "
self exe links to: /mnt/sda/2022-0526/home/gtyinstinct/CUDA_code/L2-sim/bin/RAY
Extracting specific PTX file named RAY.1.sm_70.ptx 
GPGPU-Sim PTX: __cudaRegisterFunction _Z6renderPjP4Nodejjff : hostFun 0x0x40c9bd, fat_cubin_handle = 1
GPGPU-Sim PTX: Parsing RAY.1.sm_70.ptx
GPGPU-Sim PTX: allocating constant region for "MView" from 0x100 to 0x130 (global memory space) 1
GPGPU-Sim PTX: allocating constant region for "cnode" from 0x180 to 0x220 (global memory space) 2
GPGPU-Sim PTX: allocating stack frame region for .local "__local_depot0" from 0x0 to 0x50
GPGPU-Sim PTX: Warning -- ignoring pragma 'nounroll'
GPGPU-Sim PTX: instruction assembly for function '_Z6renderPjP4Nodejjff'...   done.
GPGPU-Sim PTX: finished parsing EMBEDDED .ptx file RAY.1.sm_70.ptx
GPGPU-Sim PTX: loading globals with explicit initializers... 
GPGPU-Sim PTX: finished loading globals (0 bytes total).
GPGPU-Sim PTX: loading constants with explicit initializers...  done.
GPGPU-Sim PTX: Loading PTXInfo from RAY.1.sm_70.ptx
GPGPU-Sim PTX: Binary info : gmem=0, cmem=208
GPGPU-Sim PTX: Kernel '_Z6renderPjP4Nodejjff' : regs=54, lmem=0, smem=0, cmem=392
GPGPU-Sim PTX: __cudaRegisterVar: hostVar = 0x4298c0; deviceAddress = MView; deviceName = MView
GPGPU-Sim PTX: __cudaRegisterVar: Registering const memory space of 48 bytes
GPGPU-Sim PTX registering constant MView (48 bytes) to name mapping
GPGPU-Sim PTX: __cudaRegisterVar: hostVar = 0x429900; deviceAddress = cnode; deviceName = cnode
GPGPU-Sim PTX: __cudaRegisterVar: Registering const memory space of 160 bytes
GPGPU-Sim PTX registering constant cnode (160 bytes) to name mapping
GPGPU-Sim PTX: cudaMemcpyToSymbol: symbol = 0x429900
GPGPU-Sim PTX: starting gpgpu_ptx_sim_memcpy_symbol with hostVar 0x0x429900
GPGPU-Sim PTX: gpgpu_ptx_sim_memcpy_symbol: Found PTX symbol w/ hostVar=0x429900
GPGPU-Sim PTX: gpgpu_ptx_sim_memcpy_symbol: copying const memory 160 bytes  to  symbol cnode+0 @0x180 ...
GPGPU-Sim PTX: cudaMemcpyToSymbol: symbol = 0x4298c0
GPGPU-Sim PTX: starting gpgpu_ptx_sim_memcpy_symbol with hostVar 0x0x4298c0
GPGPU-Sim PTX: gpgpu_ptx_sim_memcpy_symbol: Found PTX symbol w/ hostVar=0x4298c0
GPGPU-Sim PTX: gpgpu_ptx_sim_memcpy_symbol: copying const memory 48 bytes  to  symbol MView+0 @0x100 ...
GPGPU-Sim PTX: Setting up arguments for 8 bytes starting at 0x7fffbe0c26c8..
GPGPU-Sim PTX: Setting up arguments for 8 bytes starting at 0x7fffbe0c26c0..
GPGPU-Sim PTX: Setting up arguments for 4 bytes starting at 0x7fffbe0c26bc..
GPGPU-Sim PTX: Setting up arguments for 4 bytes starting at 0x7fffbe0c26b8..
GPGPU-Sim PTX: Setting up arguments for 4 bytes starting at 0x7fffbe0c26b4..
GPGPU-Sim PTX: Setting up arguments for 4 bytes starting at 0x7fffbe0c26b0..

GPGPU-Sim PTX: cudaLaunch for 0x0x40c9bd (mode=performance simulation) on stream 0
GPGPU-Sim PTX: finding reconvergence points for '_Z6renderPjP4Nodejjff'...
GPGPU-Sim PTX: Finding dominators for '_Z6renderPjP4Nodejjff'...
GPGPU-Sim PTX: Finding immediate dominators for '_Z6renderPjP4Nodejjff'...
GPGPU-Sim PTX: Finding postdominators for '_Z6renderPjP4Nodejjff'...
GPGPU-Sim PTX: Finding immediate postdominators for '_Z6renderPjP4Nodejjff'...
GPGPU-Sim PTX: pre-decoding instructions for '_Z6renderPjP4Nodejjff'...
GPGPU-Sim PTX: reconvergence points for _Z6renderPjP4Nodejjff...
GPGPU-Sim PTX:  1 (potential) branch divergence @  PC=0x0e8 (RAY.1.sm_70.ptx:64) @%p6 bra $L__BB0_66;
GPGPU-Sim PTX:    immediate post dominator      @  PC=0x17b0 (RAY.1.sm_70.ptx:889) ret;
GPGPU-Sim PTX:  2 (potential) branch divergence @  PC=0x358 (RAY.1.sm_70.ptx:145) @%p7 bra $L__BB0_5;
GPGPU-Sim PTX:    immediate post dominator      @  PC=0x4b8 (RAY.1.sm_70.ptx:197) @%p14 bra $L__BB0_11;
GPGPU-Sim PTX:  3 (potential) branch divergence @  PC=0x3a0 (RAY.1.sm_70.ptx:155) @%p8 bra $L__BB0_8;
GPGPU-Sim PTX:    immediate post dominator      @  PC=0x4b8 (RAY.1.sm_70.ptx:197) @%p14 bra $L__BB0_11;
GPGPU-Sim PTX:  4 (potential) branch divergence @  PC=0x3f0 (RAY.1.sm_70.ptx:166) bra.uni $L__BB0_8;
GPGPU-Sim PTX:    immediate post dominator      @  PC=0x4b8 (RAY.1.sm_70.ptx:197) @%p14 bra $L__BB0_11;
GPGPU-Sim PTX:  5 (potential) branch divergence @  PC=0x460 (RAY.1.sm_70.ptx:182) @%p11 bra $L__BB0_8;
GPGPU-Sim PTX:    immediate post dominator      @  PC=0x4b8 (RAY.1.sm_70.ptx:197) @%p14 bra $L__BB0_11;
GPGPU-Sim PTX:  6 (potential) branch divergence @  PC=0x488 (RAY.1.sm_70.ptx:188) @%p12 bra $L__BB0_8;
GPGPU-Sim PTX:    immediate post dominator      @  PC=0x4b8 (RAY.1.sm_70.ptx:197) @%p14 bra $L__BB0_11;
GPGPU-Sim PTX:  7 (potential) branch divergence @  PC=0x4b8 (RAY.1.sm_70.ptx:197) @%p14 bra $L__BB0_11;
GPGPU-Sim PTX:    immediate post dominator      @  PC=0x618 (RAY.1.sm_70.ptx:249) setp.gt.f32 %p21, %f635, 0f00000000;
GPGPU-Sim PTX:  8 (potential) branch divergence @  PC=0x500 (RAY.1.sm_70.ptx:207) @%p15 bra $L__BB0_14;
GPGPU-Sim PTX:    immediate post dominator      @  PC=0x618 (RAY.1.sm_70.ptx:249) setp.gt.f32 %p21, %f635, 0f00000000;
GPGPU-Sim PTX:  9 (potential) branch divergence @  PC=0x550 (RAY.1.sm_70.ptx:218) bra.uni $L__BB0_14;
GPGPU-Sim PTX:    immediate post dominator      @  PC=0x618 (RAY.1.sm_70.ptx:249) setp.gt.f32 %p21, %f635, 0f00000000;
GPGPU-Sim PTX: 10 (potential) branch divergence @  PC=0x5c0 (RAY.1.sm_70.ptx:234) @%p18 bra $L__BB0_14;
GPGPU-Sim PTX:    immediate post dominator      @  PC=0x618 (RAY.1.sm_70.ptx:249) setp.gt.f32 %p21, %f635, 0f00000000;
GPGPU-Sim PTX: 11 (potential) branch divergence @  PC=0x5e8 (RAY.1.sm_70.ptx:240) @%p19 bra $L__BB0_14;
GPGPU-Sim PTX:    immediate post dominator      @  PC=0x618 (RAY.1.sm_70.ptx:249) setp.gt.f32 %p21, %f635, 0f00000000;
GPGPU-Sim PTX: 12 (potential) branch divergence @  PC=0x668 (RAY.1.sm_70.ptx:259) @%p27 bra $L__BB0_17;
GPGPU-Sim PTX:    immediate post dominator      @  PC=0x7c8 (RAY.1.sm_70.ptx:311) setp.lt.f32 %p34, %f637, %f47;
GPGPU-Sim PTX: 13 (potential) branch divergence @  PC=0x6b0 (RAY.1.sm_70.ptx:269) @%p28 bra $L__BB0_20;
GPGPU-Sim PTX:    immediate post dominator      @  PC=0x7c8 (RAY.1.sm_70.ptx:311) setp.lt.f32 %p34, %f637, %f47;
GPGPU-Sim PTX: 14 (potential) branch divergence @  PC=0x700 (RAY.1.sm_70.ptx:280) bra.uni $L__BB0_20;
GPGPU-Sim PTX:    immediate post dominator      @  PC=0x7c8 (RAY.1.sm_70.ptx:311) setp.lt.f32 %p34, %f637, %f47;
GPGPU-Sim PTX: 15 (potential) branch divergence @  PC=0x770 (RAY.1.sm_70.ptx:296) @%p31 bra $L__BB0_20;
GPGPU-Sim PTX:    immediate post dominator      @  PC=0x7c8 (RAY.1.sm_70.ptx:311) setp.lt.f32 %p34, %f637, %f47;
GPGPU-Sim PTX: 16 (potential) branch divergence @  PC=0x798 (RAY.1.sm_70.ptx:302) @%p32 bra $L__BB0_20;
GPGPU-Sim PTX:    immediate post dominator      @  PC=0x7c8 (RAY.1.sm_70.ptx:311) setp.lt.f32 %p34, %f637, %f47;
GPGPU-Sim PTX: 17 (potential) branch divergence @  PC=0x7f0 (RAY.1.sm_70.ptx:316) @%p37 bra $L__BB0_23;
GPGPU-Sim PTX:    immediate post dominator      @  PC=0x950 (RAY.1.sm_70.ptx:368) setp.lt.f32 %p44, %f638, %f57;
GPGPU-Sim PTX: 18 (potential) branch divergence @  PC=0x838 (RAY.1.sm_70.ptx:326) @%p38 bra $L__BB0_26;
GPGPU-Sim PTX:    immediate post dominator      @  PC=0x950 (RAY.1.sm_70.ptx:368) setp.lt.f32 %p44, %f638, %f57;
GPGPU-Sim PTX: 19 (potential) branch divergence @  PC=0x888 (RAY.1.sm_70.ptx:337) bra.uni $L__BB0_26;
GPGPU-Sim PTX:    immediate post dominator      @  PC=0x950 (RAY.1.sm_70.ptx:368) setp.lt.f32 %p44, %f638, %f57;
GPGPU-Sim PTX: 20 (potential) branch divergence @  PC=0x8f8 (RAY.1.sm_70.ptx:353) @%p41 bra $L__BB0_26;
GPGPU-Sim PTX:    immediate post dominator      @  PC=0x950 (RAY.1.sm_70.ptx:368) setp.lt.f32 %p44, %f638, %f57;
GPGPU-Sim PTX: 21 (potential) branch divergence @  PC=0x920 (RAY.1.sm_70.ptx:359) @%p42 bra $L__BB0_26;
GPGPU-Sim PTX:    immediate post dominator      @  PC=0x950 (RAY.1.sm_70.ptx:368) setp.lt.f32 %p44, %f638, %f57;
GPGPU-Sim PTX: 22 (potential) branch divergence @  PC=0x998 (RAY.1.sm_70.ptx:377) @%p49 bra $L__BB0_56;
GPGPU-Sim PTX:    immediate post dominator      @  PC=0x1448 (RAY.1.sm_70.ptx:764) add.s32 %r95, %r95, 1;
GPGPU-Sim PTX: 23 (potential) branch divergence @  PC=0xaa0 (RAY.1.sm_70.ptx:411) @%p50 bra $L__BB0_29;
GPGPU-Sim PTX:    immediate post dominator      @  PC=0xb38 (RAY.1.sm_70.ptx:435) mul.f32 %f358, %f80, %f640;
GPGPU-Sim PTX: 24 (potential) branch divergence @  PC=0xac0 (RAY.1.sm_70.ptx:416) bra.uni $L__BB0_30;
GPGPU-Sim PTX:    immediate post dominator      @  PC=0xb38 (RAY.1.sm_70.ptx:435) mul.f32 %f358, %f80, %f640;
GPGPU-Sim PTX: 25 (potential) branch divergence @  PC=0xbe0 (RAY.1.sm_70.ptx:456) @%p52 bra $L__BB0_55;
GPGPU-Sim PTX:    immediate post dominator      @  PC=0x13a8 (RAY.1.sm_70.ptx:742) add.s32 %r98, %r95, 1;
GPGPU-Sim PTX: 26 (potential) branch divergence @  PC=0xc58 (RAY.1.sm_70.ptx:474) @%p53 bra $L__BB0_35;
GPGPU-Sim PTX:    immediate post dominator      @  PC=0xdb0 (RAY.1.sm_70.ptx:525) setp.leu.f32 %p61, %f642, 0f00000000;
GPGPU-Sim PTX: 27 (potential) branch divergence @  PC=0xc98 (RAY.1.sm_70.ptx:483) @%p54 bra $L__BB0_38;
GPGPU-Sim PTX:    immediate post dominator      @  PC=0xdb0 (RAY.1.sm_70.ptx:525) setp.leu.f32 %p61, %f642, 0f00000000;
GPGPU-Sim PTX: 28 (potential) branch divergence @  PC=0xce8 (RAY.1.sm_70.ptx:494) bra.uni $L__BB0_38;
GPGPU-Sim PTX:    immediate post dominator      @  PC=0xdb0 (RAY.1.sm_70.ptx:525) setp.leu.f32 %p61, %f642, 0f00000000;
GPGPU-Sim PTX: 29 (potential) branch divergence @  PC=0xd60 (RAY.1.sm_70.ptx:511) @%p57 bra $L__BB0_38;
GPGPU-Sim PTX:    immediate post dominator      @  PC=0xdb0 (RAY.1.sm_70.ptx:525) setp.leu.f32 %p61, %f642, 0f00000000;
GPGPU-Sim PTX: 30 (potential) branch divergence @  PC=0xd80 (RAY.1.sm_70.ptx:516) @%p58 bra $L__BB0_38;
GPGPU-Sim PTX:    immediate post dominator      @  PC=0xdb0 (RAY.1.sm_70.ptx:525) setp.leu.f32 %p61, %f642, 0f00000000;
GPGPU-Sim PTX: 31 (potential) branch divergence @  PC=0xdc0 (RAY.1.sm_70.ptx:527) @%p61 bra $L__BB0_40;
GPGPU-Sim PTX:    immediate post dominator      @  PC=0xe00 (RAY.1.sm_70.ptx:538) cvt.u32.u64 %r49, %rd6;
GPGPU-Sim PTX: 32 (potential) branch divergence @  PC=0xe30 (RAY.1.sm_70.ptx:544) @%p64 bra $L__BB0_32;
GPGPU-Sim PTX:    immediate post dominator      @  PC=0xe38 (RAY.1.sm_70.ptx:546) setp.neu.f32 %p65, %f119, 0f00000000;
GPGPU-Sim PTX: 33 (potential) branch divergence @  PC=0xe40 (RAY.1.sm_70.ptx:547) @%p65 bra $L__BB0_55;
GPGPU-Sim PTX:    immediate post dominator      @  PC=0x13a8 (RAY.1.sm_70.ptx:742) add.s32 %r98, %r95, 1;
GPGPU-Sim PTX: 34 (potential) branch divergence @  PC=0x1218 (RAY.1.sm_70.ptx:671) @%p70 bra $L__BB0_44;
GPGPU-Sim PTX:    immediate post dominator      @  PC=0x1228 (RAY.1.sm_70.ptx:676) mov.f32 %f627, 0f41C80000;
GPGPU-Sim PTX: 35 (potential) branch divergence @  PC=0x1278 (RAY.1.sm_70.ptx:686) @%p73 bra $L__BB0_48;
GPGPU-Sim PTX:    immediate post dominator      @  PC=0x12f8 (RAY.1.sm_70.ptx:710) add.f32 %f506, %f125, 0f42480000;
GPGPU-Sim PTX: 36 (potential) branch divergence @  PC=0x1280 (RAY.1.sm_70.ptx:687) bra.uni $L__BB0_45;
GPGPU-Sim PTX:    immediate post dominator      @  PC=0x12a0 (RAY.1.sm_70.ptx:695) mov.b32 %r61, %f643;
GPGPU-Sim PTX: 37 (potential) branch divergence @  PC=0x1298 (RAY.1.sm_70.ptx:692) bra.uni $L__BB0_49;
GPGPU-Sim PTX:    immediate post dominator      @  PC=0x12f8 (RAY.1.sm_70.ptx:710) add.f32 %f506, %f125, 0f42480000;
GPGPU-Sim PTX: 38 (potential) branch divergence @  PC=0x12c8 (RAY.1.sm_70.ptx:700) @%p74 bra $L__BB0_49;
GPGPU-Sim PTX:    immediate post dominator      @  PC=0x12f8 (RAY.1.sm_70.ptx:710) add.f32 %f506, %f125, 0f42480000;
GPGPU-Sim PTX: 39 (potential) branch divergence @  PC=0x12e8 (RAY.1.sm_70.ptx:705) @%p75 bra $L__BB0_49;
GPGPU-Sim PTX:    immediate post dominator      @  PC=0x12f8 (RAY.1.sm_70.ptx:710) add.f32 %f506, %f125, 0f42480000;
GPGPU-Sim PTX: 40 (potential) branch divergence @  PC=0x1310 (RAY.1.sm_70.ptx:713) @%p77 bra $L__BB0_54;
GPGPU-Sim PTX:    immediate post dominator      @  PC=0x1358 (RAY.1.sm_70.ptx:730) mul.wide.s32 %rd26, %r95, 16;
GPGPU-Sim PTX: 41 (potential) branch divergence @  PC=0x1320 (RAY.1.sm_70.ptx:716) @%p78 bra $L__BB0_53;
GPGPU-Sim PTX:    immediate post dominator      @  PC=0x1358 (RAY.1.sm_70.ptx:730) mul.wide.s32 %rd26, %r95, 16;
GPGPU-Sim PTX: 42 (potential) branch divergence @  PC=0x1328 (RAY.1.sm_70.ptx:717) bra.uni $L__BB0_51;
GPGPU-Sim PTX:    immediate post dominator      @  PC=0x1340 (RAY.1.sm_70.ptx:724) setp.neu.f32 %p79, %f125, 0f7F800000;
GPGPU-Sim PTX: 43 (potential) branch divergence @  PC=0x1338 (RAY.1.sm_70.ptx:721) bra.uni $L__BB0_54;
GPGPU-Sim PTX:    immediate post dominator      @  PC=0x1358 (RAY.1.sm_70.ptx:730) mul.wide.s32 %rd26, %r95, 16;
GPGPU-Sim PTX: 44 (potential) branch divergence @  PC=0x1348 (RAY.1.sm_70.ptx:725) @%p79 bra $L__BB0_54;
GPGPU-Sim PTX:    immediate post dominator      @  PC=0x1358 (RAY.1.sm_70.ptx:730) mul.wide.s32 %rd26, %r95, 16;
GPGPU-Sim PTX: 45 (potential) branch divergence @  PC=0x1468 (RAY.1.sm_70.ptx:768) @%p83 bra $L__BB0_2;
GPGPU-Sim PTX:    immediate post dominator      @  PC=0x1470 (RAY.1.sm_70.ptx:770) add.s32 %r103, %r98, -1;
GPGPU-Sim PTX: 46 (potential) branch divergence @  PC=0x1480 (RAY.1.sm_70.ptx:772) @%p84 bra $L__BB0_65;
GPGPU-Sim PTX:    immediate post dominator      @  PC=0x1670 (RAY.1.sm_70.ptx:847) ld.param.u64 %rd30, [_Z6renderPjP4Nodejjff_param_0];
GPGPU-Sim PTX: 47 (potential) branch divergence @  PC=0x14a0 (RAY.1.sm_70.ptx:777) @%p85 bra $L__BB0_62;
GPGPU-Sim PTX:    immediate post dominator      @  PC=0x1530 (RAY.1.sm_70.ptx:802) add.s32 %r65, %r98, -2;
GPGPU-Sim PTX: 48 (potential) branch divergence @  PC=0x1520 (RAY.1.sm_70.ptx:797) @%p86 bra $L__BB0_60;
GPGPU-Sim PTX:    immediate post dominator      @  PC=0x1528 (RAY.1.sm_70.ptx:799) add.s32 %r103, %r104, -1;
GPGPU-Sim PTX: 49 (potential) branch divergence @  PC=0x1540 (RAY.1.sm_70.ptx:804) @%p87 bra $L__BB0_65;
GPGPU-Sim PTX:    immediate post dominator      @  PC=0x1670 (RAY.1.sm_70.ptx:847) ld.param.u64 %rd30, [_Z6renderPjP4Nodejjff_param_0];
GPGPU-Sim PTX: 50 (potential) branch divergence @  PC=0x1668 (RAY.1.sm_70.ptx:844) @%p88 bra $L__BB0_64;
GPGPU-Sim PTX:    immediate post dominator      @  PC=0x1670 (RAY.1.sm_70.ptx:847) ld.param.u64 %rd30, [_Z6renderPjP4Nodejjff_param_0];
GPGPU-Sim PTX: ... end of reconvergence points for _Z6renderPjP4Nodejjff
GPGPU-Sim PTX: ... done pre-decoding instructions for '_Z6renderPjP4Nodejjff'.
GPGPU-Sim PTX: pushing kernel '_Z6renderPjP4Nodejjff' to stream 0, gridDim= (16,32,1) blockDim = (16,8,1) 
GPGPU-Sim uArch: Shader 0 bind to kernel 1 '_Z6renderPjP4Nodejjff'
GPGPU-Sim uArch: CTA/core = 9, limited by: regs
GPGPU-Sim: Reconfigure L1 cache to 128KB
GPGPU-Sim PTX: WARNING (RAY.1.sm_70.ptx:256) ** reading undefined register '%r96' (cuid:0). Setting to 0X00000000. This is okay if you are simulating the native ISA
Destroy streams for kernel 1: size 0
kernel_name = _Z6renderPjP4Nodejjff 
kernel_launch_uid = 1 
gpu_sim_cycle = 548693
gpu_sim_insn = 44797056
gpu_ipc =      81.6432
gpu_tot_sim_cycle = 548693
gpu_tot_sim_insn = 44797056
gpu_tot_ipc =      81.6432
gpu_tot_issued_cta = 512
gpu_occupancy = 50.2721% 
gpu_tot_occupancy = 50.2721% 
max_total_param_size = 0
gpu_stall_dramfull = 0
gpu_stall_icnt2sh    = 0
partiton_level_parallism =       0.1662
partiton_level_parallism_total  =       0.1662
partiton_level_parallism_util =       1.0000
partiton_level_parallism_util_total  =       1.0000
L2_BW  =       7.6950 GB/Sec
L2_BW_total  =       7.6950 GB/Sec
gpu_total_sim_rate=443535

========= Core cache stats =========
L1I_cache:
	L1I_total_cache_accesses = 0
	L1I_total_cache_misses = 0
	L1I_total_cache_pending_hits = 0
	L1I_total_cache_reservation_fails = 0
L1D_cache:
	L1D_cache_core[0]: Access = 115100, Miss = 9742, Miss_rate = 0.085, Pending_hits = 0, Reservation_fails = 40931
	L1D_total_cache_accesses = 115100
	L1D_total_cache_misses = 9742
	L1D_total_cache_miss_rate = 0.0846
	L1D_total_cache_pending_hits = 0
	L1D_total_cache_reservation_fails = 40931
	L1D_cache_data_port_util = 0.194
	L1D_cache_fill_port_util = 0.000
L1C_cache:
	L1C_total_cache_accesses = 0
	L1C_total_cache_misses = 0
	L1C_total_cache_pending_hits = 0
	L1C_total_cache_reservation_fails = 0
L1T_cache:
	L1T_total_cache_accesses = 0
	L1T_total_cache_misses = 0
	L1T_total_cache_pending_hits = 0
	L1T_total_cache_reservation_fails = 0

Total_core_cache_stats:
	Total_core_cache_stats_breakdown[GLOBAL_ACC_R][HIT] = 8192
	Total_core_cache_stats_breakdown[GLOBAL_ACC_R][HIT_RESERVED] = 0
	Total_core_cache_stats_breakdown[GLOBAL_ACC_R][MISS] = 0
	Total_core_cache_stats_breakdown[GLOBAL_ACC_R][RESERVATION_FAIL] = 0
	Total_core_cache_stats_breakdown[GLOBAL_ACC_R][SECTOR_MISS] = 0
	Total_core_cache_stats_breakdown[GLOBAL_ACC_R][MSHR_HIT] = 0
	Total_core_cache_stats_breakdown[LOCAL_ACC_R][HIT] = 15724
	Total_core_cache_stats_breakdown[LOCAL_ACC_R][HIT_RESERVED] = 0
	Total_core_cache_stats_breakdown[LOCAL_ACC_R][MISS] = 0
	Total_core_cache_stats_breakdown[LOCAL_ACC_R][RESERVATION_FAIL] = 0
	Total_core_cache_stats_breakdown[LOCAL_ACC_R][SECTOR_MISS] = 0
	Total_core_cache_stats_breakdown[LOCAL_ACC_R][MSHR_HIT] = 0
	Total_core_cache_stats_breakdown[CONST_ACC_R][HIT] = 0
	Total_core_cache_stats_breakdown[CONST_ACC_R][HIT_RESERVED] = 0
	Total_core_cache_stats_breakdown[CONST_ACC_R][MISS] = 0
	Total_core_cache_stats_breakdown[CONST_ACC_R][RESERVATION_FAIL] = 0
	Total_core_cache_stats_breakdown[CONST_ACC_R][SECTOR_MISS] = 0
	Total_core_cache_stats_breakdown[CONST_ACC_R][MSHR_HIT] = 0
	Total_core_cache_stats_breakdown[TEXTURE_ACC_R][HIT] = 0
	Total_core_cache_stats_breakdown[TEXTURE_ACC_R][HIT_RESERVED] = 0
	Total_core_cache_stats_breakdown[TEXTURE_ACC_R][MISS] = 0
	Total_core_cache_stats_breakdown[TEXTURE_ACC_R][RESERVATION_FAIL] = 0
	Total_core_cache_stats_breakdown[TEXTURE_ACC_R][SECTOR_MISS] = 0
	Total_core_cache_stats_breakdown[TEXTURE_ACC_R][MSHR_HIT] = 0
	Total_core_cache_stats_breakdown[GLOBAL_ACC_W][HIT] = 8192
	Total_core_cache_stats_breakdown[GLOBAL_ACC_W][HIT_RESERVED] = 0
	Total_core_cache_stats_breakdown[GLOBAL_ACC_W][MISS] = 2048
	Total_core_cache_stats_breakdown[GLOBAL_ACC_W][RESERVATION_FAIL] = 1403
	Total_core_cache_stats_breakdown[GLOBAL_ACC_W][SECTOR_MISS] = 6144
	Total_core_cache_stats_breakdown[GLOBAL_ACC_W][MSHR_HIT] = 0
	Total_core_cache_stats_breakdown[LOCAL_ACC_W][HIT] = 73250
	Total_core_cache_stats_breakdown[LOCAL_ACC_W][HIT_RESERVED] = 0
	Total_core_cache_stats_breakdown[LOCAL_ACC_W][MISS] = 437
	Total_core_cache_stats_breakdown[LOCAL_ACC_W][RESERVATION_FAIL] = 39528
	Total_core_cache_stats_breakdown[LOCAL_ACC_W][SECTOR_MISS] = 1113
	Total_core_cache_stats_breakdown[LOCAL_ACC_W][MSHR_HIT] = 0
	Total_core_cache_stats_breakdown[L1_WRBK_ACC][HIT] = 0
	Total_core_cache_stats_breakdown[L1_WRBK_ACC][HIT_RESERVED] = 0
	Total_core_cache_stats_breakdown[L1_WRBK_ACC][MISS] = 0
	Total_core_cache_stats_breakdown[L1_WRBK_ACC][RESERVATION_FAIL] = 0
	Total_core_cache_stats_breakdown[L1_WRBK_ACC][SECTOR_MISS] = 0
	Total_core_cache_stats_breakdown[L1_WRBK_ACC][MSHR_HIT] = 0
	Total_core_cache_stats_breakdown[L2_WRBK_ACC][HIT] = 0
	Total_core_cache_stats_breakdown[L2_WRBK_ACC][HIT_RESERVED] = 0
	Total_core_cache_stats_breakdown[L2_WRBK_ACC][MISS] = 0
	Total_core_cache_stats_breakdown[L2_WRBK_ACC][RESERVATION_FAIL] = 0
	Total_core_cache_stats_breakdown[L2_WRBK_ACC][SECTOR_MISS] = 0
	Total_core_cache_stats_breakdown[L2_WRBK_ACC][MSHR_HIT] = 0
	Total_core_cache_stats_breakdown[INST_ACC_R][HIT] = 0
	Total_core_cache_stats_breakdown[INST_ACC_R][HIT_RESERVED] = 0
	Total_core_cache_stats_breakdown[INST_ACC_R][MISS] = 0
	Total_core_cache_stats_breakdown[INST_ACC_R][RESERVATION_FAIL] = 0
	Total_core_cache_stats_breakdown[INST_ACC_R][SECTOR_MISS] = 0
	Total_core_cache_stats_breakdown[INST_ACC_R][MSHR_HIT] = 0
	Total_core_cache_stats_breakdown[L1_WR_ALLOC_R][HIT] = 0
	Total_core_cache_stats_breakdown[L1_WR_ALLOC_R][HIT_RESERVED] = 0
	Total_core_cache_stats_breakdown[L1_WR_ALLOC_R][MISS] = 0
	Total_core_cache_stats_breakdown[L1_WR_ALLOC_R][RESERVATION_FAIL] = 0
	Total_core_cache_stats_breakdown[L1_WR_ALLOC_R][SECTOR_MISS] = 0
	Total_core_cache_stats_breakdown[L1_WR_ALLOC_R][MSHR_HIT] = 0
	Total_core_cache_stats_breakdown[L2_WR_ALLOC_R][HIT] = 0
	Total_core_cache_stats_breakdown[L2_WR_ALLOC_R][HIT_RESERVED] = 0
	Total_core_cache_stats_breakdown[L2_WR_ALLOC_R][MISS] = 0
	Total_core_cache_stats_breakdown[L2_WR_ALLOC_R][RESERVATION_FAIL] = 0
	Total_core_cache_stats_breakdown[L2_WR_ALLOC_R][SECTOR_MISS] = 0
	Total_core_cache_stats_breakdown[L2_WR_ALLOC_R][MSHR_HIT] = 0
	Total_core_cache_stats_breakdown[GLOBAL_ACC_R][TOTAL_ACCESS] = 8192
	Total_core_cache_stats_breakdown[LOCAL_ACC_R][TOTAL_ACCESS] = 15724
	Total_core_cache_stats_breakdown[GLOBAL_ACC_W][TOTAL_ACCESS] = 16384
	Total_core_cache_stats_breakdown[LOCAL_ACC_W][TOTAL_ACCESS] = 74800

Total_core_cache_fail_stats:
	Total_core_cache_fail_stats_breakdown[GLOBAL_ACC_W][MISS_QUEUE_FULL] = 1403
	Total_core_cache_fail_stats_breakdown[LOCAL_ACC_W][MISS_QUEUE_FULL] = 39528
ctas_completed 512, Shader 0 warp_id issue ditsribution:
warp_id:
0, 1, 2, 3, 4, 5, 6, 7, 8, 9, 10, 11, 12, 13, 14, 15, 16, 17, 18, 19, 20, 21, 22, 23, 24, 25, 26, 27, 28, 29, 30, 31, 32, 33, 34, 35, 
distro:
46095, 46422, 46333, 44107, 45377, 46182, 45714, 45258, 45249, 46778, 45900, 44153, 45592, 47164, 46826, 45450, 48080, 46424, 45345, 44326, 48618, 47587, 45006, 45555, 46622, 47866, 45961, 45460, 46381, 47450, 47493, 47808, 46584, 46680, 45062, 43850, 
gpgpu_n_tot_thrd_icount = 44797056
gpgpu_n_tot_w_icount = 1673244
gpgpu_n_stall_shd_mem = 12322
gpgpu_n_mem_read_local = 0
gpgpu_n_mem_write_local = 74800
gpgpu_n_mem_read_global = 0
gpgpu_n_mem_write_global = 16384
gpgpu_n_mem_texture = 0
gpgpu_n_mem_const = 0
gpgpu_n_load_insn  = 162216
gpgpu_n_store_insn = 689216
gpgpu_n_shmem_insn = 0
gpgpu_n_sstarr_insn = 0
gpgpu_n_tex_insn = 0
gpgpu_n_const_mem_insn = 2923930
gpgpu_n_param_mem_insn = 458752
gpgpu_n_shmem_bkconflict = 0
gpgpu_n_cache_bkconflict = 0
gpgpu_n_intrawarp_mshr_merge = 0
gpgpu_n_cmem_portconflict = 0
gpgpu_stall_shd_mem[c_mem][resource_stall] = 0
gpgpu_stall_shd_mem[s_mem][bk_conf] = 0
gpgpu_stall_shd_mem[gl_mem][resource_stall] = 12007
gpgpu_stall_shd_mem[gl_mem][coal_stall] = 315
gpgpu_stall_shd_mem[gl_mem][data_port_stall] = 0
gpu_reg_bank_conflict_stalls = 0
Warp Occupancy Distribution:
Stall:364146	W0_Idle:2052	W0_Scoreboard:147812	W1:36086	W2:25263	W3:16287	W4:17397	W5:17587	W6:14646	W7:17710	W8:15615	W9:14738	W10:16020	W11:10356	W12:8503	W13:12959	W14:8746	W15:8900	W16:14459	W17:9418	W18:7732	W19:6787	W20:8769	W21:6771	W22:6550	W23:7681	W24:6421	W25:6457	W26:8695	W27:9341	W28:8856	W29:8677	W30:9772	W31:10050	W32:1283509
single_issue_nums: WS0:418598	WS1:422553	WS2:413640	WS3:405967	
dual_issue_nums: WS0:0	WS1:0	WS2:0	WS3:0	
traffic_breakdown_coretomem[GLOBAL_ACC_W] = 655360 {40:16384,}
traffic_breakdown_coretomem[LOCAL_ACC_W] = 2992000 {40:74800,}
traffic_breakdown_memtocore[GLOBAL_ACC_W] = 131072 {8:16384,}
traffic_breakdown_memtocore[LOCAL_ACC_W] = 598400 {8:74800,}
maxmflatency = 308 
max_icnt2mem_latency = 144 
maxmrqlatency = 0 
max_icnt2sh_latency = 2 
averagemflatency = 198 
avg_icnt2mem_latency = 34 
avg_icnt2sh_latency = 2 
mrq_lat_table:0 	0 	0 	0 	0 	0 	0 	0 	0 	0 	0 	0 	0 	0 	0 	0 	0 	0 	0 	0 	0 	0 	0 	0 	0 	0 	0 	0 	0 	0 	0 	0 	
dq_lat_table:0 	0 	0 	0 	0 	0 	0 	0 	0 	0 	0 	0 	0 	0 	0 	0 	0 	0 	0 	0 	0 	0 	0 	0 	0 	0 	0 	0 	0 	0 	0 	0 	
mf_lat_table:0 	0 	0 	0 	0 	0 	0 	89600 	1584 	0 	0 	0 	0 	0 	0 	0 	0 	0 	0 	0 	0 	0 	0 	0 	0 	0 	0 	0 	0 	0 	0 	0 	
icnt2mem_lat_table:0 	0 	0 	0 	55276 	28344 	7558 	6 	0 	0 	0 	0 	0 	0 	0 	0 	0 	0 	0 	0 	0 	0 	0 	0 	
icnt2sh_lat_table:0 	91184 	0 	0 	0 	0 	0 	0 	0 	0 	0 	0 	0 	0 	0 	0 	0 	0 	0 	0 	0 	0 	0 	0 	
mf_lat_pw_table:0 	0 	0 	0 	0 	0 	0 	1062 	0 	0 	0 	0 	0 	0 	0 	0 	0 	0 	0 	0 	0 	0 	0 	0 	0 	0 	0 	0 	0 	0 	0 	0 	
maximum concurrent accesses to same row:
dram[0]:         0         0         0         0         0         0         0         0         0         0         0         0         0         0         0         0 
dram[1]:         0         0         0         0         0         0         0         0         0         0         0         0         0         0         0         0 
dram[2]:         0         0         0         0         0         0         0         0         0         0         0         0         0         0         0         0 
dram[3]:         0         0         0         0         0         0         0         0         0         0         0         0         0         0         0         0 
dram[4]:         0         0         0         0         0         0         0         0         0         0         0         0         0         0         0         0 
dram[5]:         0         0         0         0         0         0         0         0         0         0         0         0         0         0         0         0 
dram[6]:         0         0         0         0         0         0         0         0         0         0         0         0         0         0         0         0 
dram[7]:         0         0         0         0         0         0         0         0         0         0         0         0         0         0         0         0 
dram[8]:         0         0         0         0         0         0         0         0         0         0         0         0         0         0         0         0 
dram[9]:         0         0         0         0         0         0         0         0         0         0         0         0         0         0         0         0 
dram[10]:         0         0         0         0         0         0         0         0         0         0         0         0         0         0         0         0 
dram[11]:         0         0         0         0         0         0         0         0         0         0         0         0         0         0         0         0 
dram[12]:         0         0         0         0         0         0         0         0         0         0         0         0         0         0         0         0 
dram[13]:         0         0         0         0         0         0         0         0         0         0         0         0         0         0         0         0 
dram[14]:         0         0         0         0         0         0         0         0         0         0         0         0         0         0         0         0 
dram[15]:         0         0         0         0         0         0         0         0         0         0         0         0         0         0         0         0 
dram[16]:         0         0         0         0         0         0         0         0         0         0         0         0         0         0         0         0 
dram[17]:         0         0         0         0         0         0         0         0         0         0         0         0         0         0         0         0 
dram[18]:         0         0         0         0         0         0         0         0         0         0         0         0         0         0         0         0 
dram[19]:         0         0         0         0         0         0         0         0         0         0         0         0         0         0         0         0 
dram[20]:         0         0         0         0         0         0         0         0         0         0         0         0         0         0         0         0 
dram[21]:         0         0         0         0         0         0         0         0         0         0         0         0         0         0         0         0 
dram[22]:         0         0         0         0         0         0         0         0         0         0         0         0         0         0         0         0 
dram[23]:         0         0         0         0         0         0         0         0         0         0         0         0         0         0         0         0 
dram[24]:         0         0         0         0         0         0         0         0         0         0         0         0         0         0         0         0 
dram[25]:         0         0         0         0         0         0         0         0         0         0         0         0         0         0         0         0 
dram[26]:         0         0         0         0         0         0         0         0         0         0         0         0         0         0         0         0 
dram[27]:         0         0         0         0         0         0         0         0         0         0         0         0         0         0         0         0 
dram[28]:         0         0         0         0         0         0         0         0         0         0         0         0         0         0         0         0 
dram[29]:         0         0         0         0         0         0         0         0         0         0         0         0         0         0         0         0 
dram[30]:         0         0         0         0         0         0         0         0         0         0         0         0         0         0         0         0 
dram[31]:         0         0         0         0         0         0         0         0         0         0         0         0         0         0         0         0 
maximum service time to same row:
dram[0]:         0         0         0         0         0         0         0         0         0         0         0         0         0         0         0         0 
dram[1]:         0         0         0         0         0         0         0         0         0         0         0         0         0         0         0         0 
dram[2]:         0         0         0         0         0         0         0         0         0         0         0         0         0         0         0         0 
dram[3]:         0         0         0         0         0         0         0         0         0         0         0         0         0         0         0         0 
dram[4]:         0         0         0         0         0         0         0         0         0         0         0         0         0         0         0         0 
dram[5]:         0         0         0         0         0         0         0         0         0         0         0         0         0         0         0         0 
dram[6]:         0         0         0         0         0         0         0         0         0         0         0         0         0         0         0         0 
dram[7]:         0         0         0         0         0         0         0         0         0         0         0         0         0         0         0         0 
dram[8]:         0         0         0         0         0         0         0         0         0         0         0         0         0         0         0         0 
dram[9]:         0         0         0         0         0         0         0         0         0         0         0         0         0         0         0         0 
dram[10]:         0         0         0         0         0         0         0         0         0         0         0         0         0         0         0         0 
dram[11]:         0         0         0         0         0         0         0         0         0         0         0         0         0         0         0         0 
dram[12]:         0         0         0         0         0         0         0         0         0         0         0         0         0         0         0         0 
dram[13]:         0         0         0         0         0         0         0         0         0         0         0         0         0         0         0         0 
dram[14]:         0         0         0         0         0         0         0         0         0         0         0         0         0         0         0         0 
dram[15]:         0         0         0         0         0         0         0         0         0         0         0         0         0         0         0         0 
dram[16]:         0         0         0         0         0         0         0         0         0         0         0         0         0         0         0         0 
dram[17]:         0         0         0         0         0         0         0         0         0         0         0         0         0         0         0         0 
dram[18]:         0         0         0         0         0         0         0         0         0         0         0         0         0         0         0         0 
dram[19]:         0         0         0         0         0         0         0         0         0         0         0         0         0         0         0         0 
dram[20]:         0         0         0         0         0         0         0         0         0         0         0         0         0         0         0         0 
dram[21]:         0         0         0         0         0         0         0         0         0         0         0         0         0         0         0         0 
dram[22]:         0         0         0         0         0         0         0         0         0         0         0         0         0         0         0         0 
dram[23]:         0         0         0         0         0         0         0         0         0         0         0         0         0         0         0         0 
dram[24]:         0         0         0         0         0         0         0         0         0         0         0         0         0         0         0         0 
dram[25]:         0         0         0         0         0         0         0         0         0         0         0         0         0         0         0         0 
dram[26]:         0         0         0         0         0         0         0         0         0         0         0         0         0         0         0         0 
dram[27]:         0         0         0         0         0         0         0         0         0         0         0         0         0         0         0         0 
dram[28]:         0         0         0         0         0         0         0         0         0         0         0         0         0         0         0         0 
dram[29]:         0         0         0         0         0         0         0         0         0         0         0         0         0         0         0         0 
dram[30]:         0         0         0         0         0         0         0         0         0         0         0         0         0         0         0         0 
dram[31]:         0         0         0         0         0         0         0         0         0         0         0         0         0         0         0         0 
average row accesses per activate:
dram[0]:      -nan      -nan      -nan      -nan      -nan      -nan      -nan      -nan      -nan      -nan      -nan      -nan      -nan      -nan      -nan      -nan 
dram[1]:      -nan      -nan      -nan      -nan      -nan      -nan      -nan      -nan      -nan      -nan      -nan      -nan      -nan      -nan      -nan      -nan 
dram[2]:      -nan      -nan      -nan      -nan      -nan      -nan      -nan      -nan      -nan      -nan      -nan      -nan      -nan      -nan      -nan      -nan 
dram[3]:      -nan      -nan      -nan      -nan      -nan      -nan      -nan      -nan      -nan      -nan      -nan      -nan      -nan      -nan      -nan      -nan 
dram[4]:      -nan      -nan      -nan      -nan      -nan      -nan      -nan      -nan      -nan      -nan      -nan      -nan      -nan      -nan      -nan      -nan 
dram[5]:      -nan      -nan      -nan      -nan      -nan      -nan      -nan      -nan      -nan      -nan      -nan      -nan      -nan      -nan      -nan      -nan 
dram[6]:      -nan      -nan      -nan      -nan      -nan      -nan      -nan      -nan      -nan      -nan      -nan      -nan      -nan      -nan      -nan      -nan 
dram[7]:      -nan      -nan      -nan      -nan      -nan      -nan      -nan      -nan      -nan      -nan      -nan      -nan      -nan      -nan      -nan      -nan 
dram[8]:      -nan      -nan      -nan      -nan      -nan      -nan      -nan      -nan      -nan      -nan      -nan      -nan      -nan      -nan      -nan      -nan 
dram[9]:      -nan      -nan      -nan      -nan      -nan      -nan      -nan      -nan      -nan      -nan      -nan      -nan      -nan      -nan      -nan      -nan 
dram[10]:      -nan      -nan      -nan      -nan      -nan      -nan      -nan      -nan      -nan      -nan      -nan      -nan      -nan      -nan      -nan      -nan 
dram[11]:      -nan      -nan      -nan      -nan      -nan      -nan      -nan      -nan      -nan      -nan      -nan      -nan      -nan      -nan      -nan      -nan 
dram[12]:      -nan      -nan      -nan      -nan      -nan      -nan      -nan      -nan      -nan      -nan      -nan      -nan      -nan      -nan      -nan      -nan 
dram[13]:      -nan      -nan      -nan      -nan      -nan      -nan      -nan      -nan      -nan      -nan      -nan      -nan      -nan      -nan      -nan      -nan 
dram[14]:      -nan      -nan      -nan      -nan      -nan      -nan      -nan      -nan      -nan      -nan      -nan      -nan      -nan      -nan      -nan      -nan 
dram[15]:      -nan      -nan      -nan      -nan      -nan      -nan      -nan      -nan      -nan      -nan      -nan      -nan      -nan      -nan      -nan      -nan 
dram[16]:      -nan      -nan      -nan      -nan      -nan      -nan      -nan      -nan      -nan      -nan      -nan      -nan      -nan      -nan      -nan      -nan 
dram[17]:      -nan      -nan      -nan      -nan      -nan      -nan      -nan      -nan      -nan      -nan      -nan      -nan      -nan      -nan      -nan      -nan 
dram[18]:      -nan      -nan      -nan      -nan      -nan      -nan      -nan      -nan      -nan      -nan      -nan      -nan      -nan      -nan      -nan      -nan 
dram[19]:      -nan      -nan      -nan      -nan      -nan      -nan      -nan      -nan      -nan      -nan      -nan      -nan      -nan      -nan      -nan      -nan 
dram[20]:      -nan      -nan      -nan      -nan      -nan      -nan      -nan      -nan      -nan      -nan      -nan      -nan      -nan      -nan      -nan      -nan 
dram[21]:      -nan      -nan      -nan      -nan      -nan      -nan      -nan      -nan      -nan      -nan      -nan      -nan      -nan      -nan      -nan      -nan 
dram[22]:      -nan      -nan      -nan      -nan      -nan      -nan      -nan      -nan      -nan      -nan      -nan      -nan      -nan      -nan      -nan      -nan 
dram[23]:      -nan      -nan      -nan      -nan      -nan      -nan      -nan      -nan      -nan      -nan      -nan      -nan      -nan      -nan      -nan      -nan 
dram[24]:      -nan      -nan      -nan      -nan      -nan      -nan      -nan      -nan      -nan      -nan      -nan      -nan      -nan      -nan      -nan      -nan 
dram[25]:      -nan      -nan      -nan      -nan      -nan      -nan      -nan      -nan      -nan      -nan      -nan      -nan      -nan      -nan      -nan      -nan 
dram[26]:      -nan      -nan      -nan      -nan      -nan      -nan      -nan      -nan      -nan      -nan      -nan      -nan      -nan      -nan      -nan      -nan 
dram[27]:      -nan      -nan      -nan      -nan      -nan      -nan      -nan      -nan      -nan      -nan      -nan      -nan      -nan      -nan      -nan      -nan 
dram[28]:      -nan      -nan      -nan      -nan      -nan      -nan      -nan      -nan      -nan      -nan      -nan      -nan      -nan      -nan      -nan      -nan 
dram[29]:      -nan      -nan      -nan      -nan      -nan      -nan      -nan      -nan      -nan      -nan      -nan      -nan      -nan      -nan      -nan      -nan 
dram[30]:      -nan      -nan      -nan      -nan      -nan      -nan      -nan      -nan      -nan      -nan      -nan      -nan      -nan      -nan      -nan      -nan 
dram[31]:      -nan      -nan      -nan      -nan      -nan      -nan      -nan      -nan      -nan      -nan      -nan      -nan      -nan      -nan      -nan      -nan 
average row locality = 0/0 = -nan
number of total memory accesses made:
dram[0]:         0         0         0         0         0         0         0         0         0         0         0         0         0         0         0         0 
dram[1]:         0         0         0         0         0         0         0         0         0         0         0         0         0         0         0         0 
dram[2]:         0         0         0         0         0         0         0         0         0         0         0         0         0         0         0         0 
dram[3]:         0         0         0         0         0         0         0         0         0         0         0         0         0         0         0         0 
dram[4]:         0         0         0         0         0         0         0         0         0         0         0         0         0         0         0         0 
dram[5]:         0         0         0         0         0         0         0         0         0         0         0         0         0         0         0         0 
dram[6]:         0         0         0         0         0         0         0         0         0         0         0         0         0         0         0         0 
dram[7]:         0         0         0         0         0         0         0         0         0         0         0         0         0         0         0         0 
dram[8]:         0         0         0         0         0         0         0         0         0         0         0         0         0         0         0         0 
dram[9]:         0         0         0         0         0         0         0         0         0         0         0         0         0         0         0         0 
dram[10]:         0         0         0         0         0         0         0         0         0         0         0         0         0         0         0         0 
dram[11]:         0         0         0         0         0         0         0         0         0         0         0         0         0         0         0         0 
dram[12]:         0         0         0         0         0         0         0         0         0         0         0         0         0         0         0         0 
dram[13]:         0         0         0         0         0         0         0         0         0         0         0         0         0         0         0         0 
dram[14]:         0         0         0         0         0         0         0         0         0         0         0         0         0         0         0         0 
dram[15]:         0         0         0         0         0         0         0         0         0         0         0         0         0         0         0         0 
dram[16]:         0         0         0         0         0         0         0         0         0         0         0         0         0         0         0         0 
dram[17]:         0         0         0         0         0         0         0         0         0         0         0         0         0         0         0         0 
dram[18]:         0         0         0         0         0         0         0         0         0         0         0         0         0         0         0         0 
dram[19]:         0         0         0         0         0         0         0         0         0         0         0         0         0         0         0         0 
dram[20]:         0         0         0         0         0         0         0         0         0         0         0         0         0         0         0         0 
dram[21]:         0         0         0         0         0         0         0         0         0         0         0         0         0         0         0         0 
dram[22]:         0         0         0         0         0         0         0         0         0         0         0         0         0         0         0         0 
dram[23]:         0         0         0         0         0         0         0         0         0         0         0         0         0         0         0         0 
dram[24]:         0         0         0         0         0         0         0         0         0         0         0         0         0         0         0         0 
dram[25]:         0         0         0         0         0         0         0         0         0         0         0         0         0         0         0         0 
dram[26]:         0         0         0         0         0         0         0         0         0         0         0         0         0         0         0         0 
dram[27]:         0         0         0         0         0         0         0         0         0         0         0         0         0         0         0         0 
dram[28]:         0         0         0         0         0         0         0         0         0         0         0         0         0         0         0         0 
dram[29]:         0         0         0         0         0         0         0         0         0         0         0         0         0         0         0         0 
dram[30]:         0         0         0         0         0         0         0         0         0         0         0         0         0         0         0         0 
dram[31]:         0         0         0         0         0         0         0         0         0         0         0         0         0         0         0         0 
total accesses: 0
min_bank_accesses = 0!
min_chip_accesses = 0!
number of total read accesses:
dram[0]:         0         0         0         0         0         0         0         0         0         0         0         0         0         0         0         0 
dram[1]:         0         0         0         0         0         0         0         0         0         0         0         0         0         0         0         0 
dram[2]:         0         0         0         0         0         0         0         0         0         0         0         0         0         0         0         0 
dram[3]:         0         0         0         0         0         0         0         0         0         0         0         0         0         0         0         0 
dram[4]:         0         0         0         0         0         0         0         0         0         0         0         0         0         0         0         0 
dram[5]:         0         0         0         0         0         0         0         0         0         0         0         0         0         0         0         0 
dram[6]:         0         0         0         0         0         0         0         0         0         0         0         0         0         0         0         0 
dram[7]:         0         0         0         0         0         0         0         0         0         0         0         0         0         0         0         0 
dram[8]:         0         0         0         0         0         0         0         0         0         0         0         0         0         0         0         0 
dram[9]:         0         0         0         0         0         0         0         0         0         0         0         0         0         0         0         0 
dram[10]:         0         0         0         0         0         0         0         0         0         0         0         0         0         0         0         0 
dram[11]:         0         0         0         0         0         0         0         0         0         0         0         0         0         0         0         0 
dram[12]:         0         0         0         0         0         0         0         0         0         0         0         0         0         0         0         0 
dram[13]:         0         0         0         0         0         0         0         0         0         0         0         0         0         0         0         0 
dram[14]:         0         0         0         0         0         0         0         0         0         0         0         0         0         0         0         0 
dram[15]:         0         0         0         0         0         0         0         0         0         0         0         0         0         0         0         0 
dram[16]:         0         0         0         0         0         0         0         0         0         0         0         0         0         0         0         0 
dram[17]:         0         0         0         0         0         0         0         0         0         0         0         0         0         0         0         0 
dram[18]:         0         0         0         0         0         0         0         0         0         0         0         0         0         0         0         0 
dram[19]:         0         0         0         0         0         0         0         0         0         0         0         0         0         0         0         0 
dram[20]:         0         0         0         0         0         0         0         0         0         0         0         0         0         0         0         0 
dram[21]:         0         0         0         0         0         0         0         0         0         0         0         0         0         0         0         0 
dram[22]:         0         0         0         0         0         0         0         0         0         0         0         0         0         0         0         0 
dram[23]:         0         0         0         0         0         0         0         0         0         0         0         0         0         0         0         0 
dram[24]:         0         0         0         0         0         0         0         0         0         0         0         0         0         0         0         0 
dram[25]:         0         0         0         0         0         0         0         0         0         0         0         0         0         0         0         0 
dram[26]:         0         0         0         0         0         0         0         0         0         0         0         0         0         0         0         0 
dram[27]:         0         0         0         0         0         0         0         0         0         0         0         0         0         0         0         0 
dram[28]:         0         0         0         0         0         0         0         0         0         0         0         0         0         0         0         0 
dram[29]:         0         0         0         0         0         0         0         0         0         0         0         0         0         0         0         0 
dram[30]:         0         0         0         0         0         0         0         0         0         0         0         0         0         0         0         0 
dram[31]:         0         0         0         0         0         0         0         0         0         0         0         0         0         0         0         0 
total dram reads = 0
min_bank_accesses = 0!
min_chip_accesses = 0!
number of total write accesses:
dram[0]:         0         0         0         0         0         0         0         0         0         0         0         0         0         0         0         0 
dram[1]:         0         0         0         0         0         0         0         0         0         0         0         0         0         0         0         0 
dram[2]:         0         0         0         0         0         0         0         0         0         0         0         0         0         0         0         0 
dram[3]:         0         0         0         0         0         0         0         0         0         0         0         0         0         0         0         0 
dram[4]:         0         0         0         0         0         0         0         0         0         0         0         0         0         0         0         0 
dram[5]:         0         0         0         0         0         0         0         0         0         0         0         0         0         0         0         0 
dram[6]:         0         0         0         0         0         0         0         0         0         0         0         0         0         0         0         0 
dram[7]:         0         0         0         0         0         0         0         0         0         0         0         0         0         0         0         0 
[...]
rwq = 0 
CCDLc_limit_alone = 0 
WTRc_limit_alone = 0 
RTWc_limit_alone = 0 

Commands details: 
total_CMD = 322314 
n_nop = 322314 
Read = 0 
Write = 0 
L2_Alloc = 0 
L2_WB = 0 
n_act = 0 
n_pre = 0 
n_ref = 0 
n_req = 0 
total_req = 0 

Dual Bus Interface Util: 
issued_total_row = 0 
issued_total_col = 0 
Row_Bus_Util =  0.000000 
CoL_Bus_Util = 0.000000 
Either_Row_CoL_Bus_Util = 0.000000 
Issued_on_Two_Bus_Simul_Util = 0.000000 
issued_two_Eff = -nan 
queue_avg = 0.000000 


dram_util_bins: 0 0 0 0 0 0 0 0 0 0
dram_eff_bins: 0 0 0 0 0 0 0 0 0 0
mrqq: max=0 avg=0
Memory Partition 28: 
Cache L2_bank_056:
MSHR contents

Cache L2_bank_057:
MSHR contents

In Dram Latency Queue (total = 0): 
DRAM[28]: 16 bks, busW=16 BL=2 CL=12, tRRD=3 tCCD=1, tRCD=12 tRAS=28 tRP=12 tRC=40
n_cmd=322314 n_nop=322314 n_act=0 n_pre=0 n_ref_event=0 n_req=0 n_rd=0 n_rd_L2_A=0 n_write=0 n_wr_bk=0 bw_util=0
n_activity=0 dram_eff=-nan
bk0: 0a 322314i bk1: 0a 322314i bk2: 0a 322314i bk3: 0a 322314i bk4: 0a 322314i bk5: 0a 322314i bk6: 0a 322314i bk7: 0a 322314i bk8: 0a 322314i bk9: 0a 322314i bk10: 0a 322314i bk11: 0a 322314i bk12: 0a 322314i bk13: 0a 322314i bk14: 0a 322314i bk15: 0a 322314i 

------------------------------------------------------------------------

Row_Buffer_Locality = -nan
Row_Buffer_Locality_read = -nan
Row_Buffer_Locality_write = -nan
Bank_Level_Parallism = -nan
Bank_Level_Parallism_Col = -nan
Bank_Level_Parallism_Ready = -nan
write_to_read_ratio_blp_rw_average = -nan
GrpLevelPara = -nan 

BW Util details:
bwutil = 0.000000 
total_CMD = 322314 
util_bw = 0 
Wasted_Col = 0 
Wasted_Row = 0 
Idle = 322314 

BW Util Bottlenecks: 
RCDc_limit = 0 
RCDWRc_limit = 0 
WTRc_limit = 0 
RTWc_limit = 0 
CCDLc_limit = 0 
rwq = 0 
CCDLc_limit_alone = 0 
WTRc_limit_alone = 0 
RTWc_limit_alone = 0 

Commands details: 
total_CMD = 322314 
n_nop = 322314 
Read = 0 
Write = 0 
L2_Alloc = 0 
L2_WB = 0 
n_act = 0 
n_pre = 0 
n_ref = 0 
n_req = 0 
total_req = 0 

Dual Bus Interface Util: 
issued_total_row = 0 
issued_total_col = 0 
Row_Bus_Util =  0.000000 
CoL_Bus_Util = 0.000000 
Either_Row_CoL_Bus_Util = 0.000000 
Issued_on_Two_Bus_Simul_Util = 0.000000 
issued_two_Eff = -nan 
queue_avg = 0.000000 


dram_util_bins: 0 0 0 0 0 0 0 0 0 0
dram_eff_bins: 0 0 0 0 0 0 0 0 0 0
mrqq: max=0 avg=0
Memory Partition 29: 
Cache L2_bank_058:
MSHR contents

Cache L2_bank_059:
MSHR contents

In Dram Latency Queue (total = 0): 
DRAM[29]: 16 bks, busW=16 BL=2 CL=12, tRRD=3 tCCD=1, tRCD=12 tRAS=28 tRP=12 tRC=40
n_cmd=322314 n_nop=322314 n_act=0 n_pre=0 n_ref_event=0 n_req=0 n_rd=0 n_rd_L2_A=0 n_write=0 n_wr_bk=0 bw_util=0
n_activity=0 dram_eff=-nan
bk0: 0a 322314i bk1: 0a 322314i bk2: 0a 322314i bk3: 0a 322314i bk4: 0a 322314i bk5: 0a 322314i bk6: 0a 322314i bk7: 0a 322314i bk8: 0a 322314i bk9: 0a 322314i bk10: 0a 322314i bk11: 0a 322314i bk12: 0a 322314i bk13: 0a 322314i bk14: 0a 322314i bk15: 0a 322314i 

------------------------------------------------------------------------

Row_Buffer_Locality = -nan
Row_Buffer_Locality_read = -nan
Row_Buffer_Locality_write = -nan
Bank_Level_Parallism = -nan
Bank_Level_Parallism_Col = -nan
Bank_Level_Parallism_Ready = -nan
write_to_read_ratio_blp_rw_average = -nan
GrpLevelPara = -nan 

BW Util details:
bwutil = 0.000000 
total_CMD = 322314 
util_bw = 0 
Wasted_Col = 0 
Wasted_Row = 0 
Idle = 322314 

BW Util Bottlenecks: 
RCDc_limit = 0 
RCDWRc_limit = 0 
WTRc_limit = 0 
RTWc_limit = 0 
CCDLc_limit = 0 
rwq = 0 
CCDLc_limit_alone = 0 
WTRc_limit_alone = 0 
RTWc_limit_alone = 0 

Commands details: 
total_CMD = 322314 
n_nop = 322314 
Read = 0 
Write = 0 
L2_Alloc = 0 
L2_WB = 0 
n_act = 0 
n_pre = 0 
n_ref = 0 
n_req = 0 
total_req = 0 

Dual Bus Interface Util: 
issued_total_row = 0 
issued_total_col = 0 
Row_Bus_Util =  0.000000 
CoL_Bus_Util = 0.000000 
Either_Row_CoL_Bus_Util = 0.000000 
Issued_on_Two_Bus_Simul_Util = 0.000000 
issued_two_Eff = -nan 
queue_avg = 0.000000 


dram_util_bins: 0 0 0 0 0 0 0 0 0 0
dram_eff_bins: 0 0 0 0 0 0 0 0 0 0
mrqq: max=0 avg=0
Memory Partition 30: 
Cache L2_bank_060:
MSHR contents

Cache L2_bank_061:
MSHR contents

In Dram Latency Queue (total = 0): 
DRAM[30]: 16 bks, busW=16 BL=2 CL=12, tRRD=3 tCCD=1, tRCD=12 tRAS=28 tRP=12 tRC=40
n_cmd=322314 n_nop=322314 n_act=0 n_pre=0 n_ref_event=0 n_req=0 n_rd=0 n_rd_L2_A=0 n_write=0 n_wr_bk=0 bw_util=0
n_activity=0 dram_eff=-nan
bk0: 0a 322314i bk1: 0a 322314i bk2: 0a 322314i bk3: 0a 322314i bk4: 0a 322314i bk5: 0a 322314i bk6: 0a 322314i bk7: 0a 322314i bk8: 0a 322314i bk9: 0a 322314i bk10: 0a 322314i bk11: 0a 322314i bk12: 0a 322314i bk13: 0a 322314i bk14: 0a 322314i bk15: 0a 322314i 

------------------------------------------------------------------------

Row_Buffer_Locality = -nan
Row_Buffer_Locality_read = -nan
Row_Buffer_Locality_write = -nan
Bank_Level_Parallism = -nan
Bank_Level_Parallism_Col = -nan
Bank_Level_Parallism_Ready = -nan
write_to_read_ratio_blp_rw_average = -nan
GrpLevelPara = -nan 

BW Util details:
bwutil = 0.000000 
total_CMD = 322314 
util_bw = 0 
Wasted_Col = 0 
Wasted_Row = 0 
Idle = 322314 

BW Util Bottlenecks: 
RCDc_limit = 0 
RCDWRc_limit = 0 
WTRc_limit = 0 
RTWc_limit = 0 
CCDLc_limit = 0 
rwq = 0 
CCDLc_limit_alone = 0 
WTRc_limit_alone = 0 
RTWc_limit_alone = 0 

Commands details: 
total_CMD = 322314 
n_nop = 322314 
Read = 0 
Write = 0 
L2_Alloc = 0 
L2_WB = 0 
n_act = 0 
n_pre = 0 
n_ref = 0 
n_req = 0 
total_req = 0 

Dual Bus Interface Util: 
issued_total_row = 0 
issued_total_col = 0 
Row_Bus_Util =  0.000000 
CoL_Bus_Util = 0.000000 
Either_Row_CoL_Bus_Util = 0.000000 
Issued_on_Two_Bus_Simul_Util = 0.000000 
issued_two_Eff = -nan 
queue_avg = 0.000000 


dram_util_bins: 0 0 0 0 0 0 0 0 0 0
dram_eff_bins: 0 0 0 0 0 0 0 0 0 0
mrqq: max=0 avg=0
Memory Partition 31: 
Cache L2_bank_062:
MSHR contents

Cache L2_bank_063:
MSHR contents

In Dram Latency Queue (total = 0): 
DRAM[31]: 16 bks, busW=16 BL=2 CL=12, tRRD=3 tCCD=1, tRCD=12 tRAS=28 tRP=12 tRC=40
n_cmd=322314 n_nop=322314 n_act=0 n_pre=0 n_ref_event=0 n_req=0 n_rd=0 n_rd_L2_A=0 n_write=0 n_wr_bk=0 bw_util=0
n_activity=0 dram_eff=-nan
bk0: 0a 322314i bk1: 0a 322314i bk2: 0a 322314i bk3: 0a 322314i bk4: 0a 322314i bk5: 0a 322314i bk6: 0a 322314i bk7: 0a 322314i bk8: 0a 322314i bk9: 0a 322314i bk10: 0a 322314i bk11: 0a 322314i bk12: 0a 322314i bk13: 0a 322314i bk14: 0a 322314i bk15: 0a 322314i 

------------------------------------------------------------------------

Row_Buffer_Locality = -nan
Row_Buffer_Locality_read = -nan
Row_Buffer_Locality_write = -nan
Bank_Level_Parallism = -nan
Bank_Level_Parallism_Col = -nan
Bank_Level_Parallism_Ready = -nan
write_to_read_ratio_blp_rw_average = -nan
GrpLevelPara = -nan 

BW Util details:
bwutil = 0.000000 
total_CMD = 322314 
util_bw = 0 
Wasted_Col = 0 
Wasted_Row = 0 
Idle = 322314 

BW Util Bottlenecks: 
RCDc_limit = 0 
RCDWRc_limit = 0 
WTRc_limit = 0 
RTWc_limit = 0 
CCDLc_limit = 0 
rwq = 0 
CCDLc_limit_alone = 0 
WTRc_limit_alone = 0 
RTWc_limit_alone = 0 

Commands details: 
total_CMD = 322314 
n_nop = 322314 
Read = 0 
Write = 0 
L2_Alloc = 0 
L2_WB = 0 
n_act = 0 
n_pre = 0 
n_ref = 0 
n_req = 0 
total_req = 0 

Dual Bus Interface Util: 
issued_total_row = 0 
issued_total_col = 0 
Row_Bus_Util =  0.000000 
CoL_Bus_Util = 0.000000 
Either_Row_CoL_Bus_Util = 0.000000 
Issued_on_Two_Bus_Simul_Util = 0.000000 
issued_two_Eff = -nan 
queue_avg = 0.000000 


dram_util_bins: 0 0 0 0 0 0 0 0 0 0
dram_eff_bins: 0 0 0 0 0 0 0 0 0 0
mrqq: max=0 avg=0

========= L2 cache stats =========
L2_cache_bank[0]: Access = 1684, Miss = 160, Miss_rate = 0.095, Pending_hits = 0, Reservation_fails = 0
L2_cache_bank[1]: Access = 1709, Miss = 136, Miss_rate = 0.080, Pending_hits = 0, Reservation_fails = 0
L2_cache_bank[2]: Access = 1704, Miss = 158, Miss_rate = 0.093, Pending_hits = 0, Reservation_fails = 0
L2_cache_bank[3]: Access = 1766, Miss = 136, Miss_rate = 0.077, Pending_hits = 0, Reservation_fails = 0
L2_cache_bank[4]: Access = 1694, Miss = 159, Miss_rate = 0.094, Pending_hits = 0, Reservation_fails = 0
L2_cache_bank[5]: Access = 2280, Miss = 150, Miss_rate = 0.066, Pending_hits = 0, Reservation_fails = 0
L2_cache_bank[6]: Access = 1682, Miss = 152, Miss_rate = 0.090, Pending_hits = 0, Reservation_fails = 0
L2_cache_bank[7]: Access = 2321, Miss = 150, Miss_rate = 0.065, Pending_hits = 0, Reservation_fails = 0
L2_cache_bank[8]: Access = 1752, Miss = 157, Miss_rate = 0.090, Pending_hits = 0, Reservation_fails = 0
L2_cache_bank[9]: Access = 1860, Miss = 151, Miss_rate = 0.081, Pending_hits = 0, Reservation_fails = 0
L2_cache_bank[10]: Access = 1759, Miss = 158, Miss_rate = 0.090, Pending_hits = 0, Reservation_fails = 0
L2_cache_bank[11]: Access = 1877, Miss = 148, Miss_rate = 0.079, Pending_hits = 0, Reservation_fails = 0
L2_cache_bank[12]: Access = 1717, Miss = 160, Miss_rate = 0.093, Pending_hits = 0, Reservation_fails = 0
L2_cache_bank[13]: Access = 1842, Miss = 150, Miss_rate = 0.081, Pending_hits = 0, Reservation_fails = 0
L2_cache_bank[14]: Access = 1745, Miss = 158, Miss_rate = 0.091, Pending_hits = 0, Reservation_fails = 0
L2_cache_bank[15]: Access = 1825, Miss = 152, Miss_rate = 0.083, Pending_hits = 0, Reservation_fails = 0
L2_cache_bank[16]: Access = 824, Miss = 151, Miss_rate = 0.183, Pending_hits = 0, Reservation_fails = 0
L2_cache_bank[17]: Access = 2265, Miss = 151, Miss_rate = 0.067, Pending_hits = 0, Reservation_fails = 0
L2_cache_bank[18]: Access = 795, Miss = 149, Miss_rate = 0.187, Pending_hits = 0, Reservation_fails = 0
L2_cache_bank[19]: Access = 2285, Miss = 149, Miss_rate = 0.065, Pending_hits = 0, Reservation_fails = 0
L2_cache_bank[20]: Access = 1309, Miss = 156, Miss_rate = 0.119, Pending_hits = 0, Reservation_fails = 0
L2_cache_bank[21]: Access = 2152, Miss = 148, Miss_rate = 0.069, Pending_hits = 0, Reservation_fails = 0
L2_cache_bank[22]: Access = 1298, Miss = 156, Miss_rate = 0.120, Pending_hits = 0, Reservation_fails = 0
L2_cache_bank[23]: Access = 2221, Miss = 149, Miss_rate = 0.067, Pending_hits = 0, Reservation_fails = 0
L2_cache_bank[24]: Access = 1028, Miss = 144, Miss_rate = 0.140, Pending_hits = 0, Reservation_fails = 0
L2_cache_bank[25]: Access = 2157, Miss = 151, Miss_rate = 0.070, Pending_hits = 0, Reservation_fails = 0
L2_cache_bank[26]: Access = 1051, Miss = 144, Miss_rate = 0.137, Pending_hits = 0, Reservation_fails = 0
L2_cache_bank[27]: Access = 2168, Miss = 149, Miss_rate = 0.069, Pending_hits = 0, Reservation_fails = 0
L2_cache_bank[28]: Access = 1033, Miss = 152, Miss_rate = 0.147, Pending_hits = 0, Reservation_fails = 0
L2_cache_bank[29]: Access = 2281, Miss = 151, Miss_rate = 0.066, Pending_hits = 0, Reservation_fails = 0
L2_cache_bank[30]: Access = 1044, Miss = 152, Miss_rate = 0.146, Pending_hits = 0, Reservation_fails = 0
L2_cache_bank[31]: Access = 2292, Miss = 149, Miss_rate = 0.065, Pending_hits = 0, Reservation_fails = 0
L2_cache_bank[32]: Access = 1529, Miss = 152, Miss_rate = 0.099, Pending_hits = 0, Reservation_fails = 0
L2_cache_bank[33]: Access = 923, Miss = 144, Miss_rate = 0.156, Pending_hits = 0, Reservation_fails = 0
L2_cache_bank[34]: Access = 1506, Miss = 152, Miss_rate = 0.101, Pending_hits = 0, Reservation_fails = 0
L2_cache_bank[35]: Access = 883, Miss = 144, Miss_rate = 0.163, Pending_hits = 0, Reservation_fails = 0
L2_cache_bank[36]: Access = 806, Miss = 144, Miss_rate = 0.179, Pending_hits = 0, Reservation_fails = 0
L2_cache_bank[37]: Access = 912, Miss = 144, Miss_rate = 0.158, Pending_hits = 0, Reservation_fails = 0
L2_cache_bank[38]: Access = 794, Miss = 144, Miss_rate = 0.181, Pending_hits = 0, Reservation_fails = 0
L2_cache_bank[39]: Access = 907, Miss = 144, Miss_rate = 0.159, Pending_hits = 0, Reservation_fails = 0
L2_cache_bank[40]: Access = 828, Miss = 144, Miss_rate = 0.174, Pending_hits = 0, Reservation_fails = 0
L2_cache_bank[41]: Access = 933, Miss = 152, Miss_rate = 0.163, Pending_hits = 0, Reservation_fails = 0
L2_cache_bank[42]: Access = 792, Miss = 144, Miss_rate = 0.182, Pending_hits = 0, Reservation_fails = 0
L2_cache_bank[43]: Access = 957, Miss = 152, Miss_rate = 0.159, Pending_hits = 0, Reservation_fails = 0
L2_cache_bank[44]: Access = 786, Miss = 144, Miss_rate = 0.183, Pending_hits = 0, Reservation_fails = 0
L2_cache_bank[45]: Access = 855, Miss = 144, Miss_rate = 0.168, Pending_hits = 0, Reservation_fails = 0
L2_cache_bank[46]: Access = 794, Miss = 144, Miss_rate = 0.181, Pending_hits = 0, Reservation_fails = 0
L2_cache_bank[47]: Access = 835, Miss = 143, Miss_rate = 0.171, Pending_hits = 0, Reservation_fails = 0
L2_cache_bank[48]: Access = 1289, Miss = 144, Miss_rate = 0.112, Pending_hits = 0, Reservation_fails = 0
L2_cache_bank[49]: Access = 2304, Miss = 152, Miss_rate = 0.066, Pending_hits = 0, Reservation_fails = 0
L2_cache_bank[50]: Access = 1281, Miss = 144, Miss_rate = 0.112, Pending_hits = 0, Reservation_fails = 0
L2_cache_bank[51]: Access = 2367, Miss = 152, Miss_rate = 0.064, Pending_hits = 0, Reservation_fails = 0
L2_cache_bank[52]: Access = 1276, Miss = 148, Miss_rate = 0.116, Pending_hits = 0, Reservation_fails = 0
L2_cache_bank[53]: Access = 874, Miss = 144, Miss_rate = 0.165, Pending_hits = 0, Reservation_fails = 0
L2_cache_bank[54]: Access = 1254, Miss = 149, Miss_rate = 0.119, Pending_hits = 0, Reservation_fails = 0
L2_cache_bank[55]: Access = 879, Miss = 144, Miss_rate = 0.164, Pending_hits = 0, Reservation_fails = 0
L2_cache_bank[56]: Access = 1267, Miss = 154, Miss_rate = 0.122, Pending_hits = 0, Reservation_fails = 0
L2_cache_bank[57]: Access = 902, Miss = 144, Miss_rate = 0.160, Pending_hits = 0, Reservation_fails = 0
L2_cache_bank[58]: Access = 1270, Miss = 155, Miss_rate = 0.122, Pending_hits = 0, Reservation_fails = 0
L2_cache_bank[59]: Access = 931, Miss = 144, Miss_rate = 0.155, Pending_hits = 0, Reservation_fails = 0
L2_cache_bank[60]: Access = 1519, Miss = 156, Miss_rate = 0.103, Pending_hits = 0, Reservation_fails = 0
L2_cache_bank[61]: Access = 886, Miss = 144, Miss_rate = 0.163, Pending_hits = 0, Reservation_fails = 0
L2_cache_bank[62]: Access = 1545, Miss = 155, Miss_rate = 0.100, Pending_hits = 0, Reservation_fails = 0
L2_cache_bank[63]: Access = 880, Miss = 144, Miss_rate = 0.164, Pending_hits = 0, Reservation_fails = 0
L2_total_cache_accesses = 91184
L2_total_cache_misses = 9544
L2_total_cache_miss_rate = 0.1047
L2_total_cache_pending_hits = 0
L2_total_cache_reservation_fails = 0
L2_total_cache_breakdown:
	L2_cache_stats_breakdown[GLOBAL_ACC_R][HIT] = 0
	L2_cache_stats_breakdown[GLOBAL_ACC_R][HIT_RESERVED] = 0
	L2_cache_stats_breakdown[GLOBAL_ACC_R][MISS] = 0
	L2_cache_stats_breakdown[GLOBAL_ACC_R][RESERVATION_FAIL] = 0
	L2_cache_stats_breakdown[GLOBAL_ACC_R][SECTOR_MISS] = 0
	L2_cache_stats_breakdown[GLOBAL_ACC_R][MSHR_HIT] = 0
	L2_cache_stats_breakdown[LOCAL_ACC_R][HIT] = 0
	L2_cache_stats_breakdown[LOCAL_ACC_R][HIT_RESERVED] = 0
	L2_cache_stats_breakdown[LOCAL_ACC_R][MISS] = 0
	L2_cache_stats_breakdown[LOCAL_ACC_R][RESERVATION_FAIL] = 0
	L2_cache_stats_breakdown[LOCAL_ACC_R][SECTOR_MISS] = 0
	L2_cache_stats_breakdown[LOCAL_ACC_R][MSHR_HIT] = 0
	L2_cache_stats_breakdown[CONST_ACC_R][HIT] = 0
	L2_cache_stats_breakdown[CONST_ACC_R][HIT_RESERVED] = 0
	L2_cache_stats_breakdown[CONST_ACC_R][MISS] = 0
	L2_cache_stats_breakdown[CONST_ACC_R][RESERVATION_FAIL] = 0
	L2_cache_stats_breakdown[CONST_ACC_R][SECTOR_MISS] = 0
	L2_cache_stats_breakdown[CONST_ACC_R][MSHR_HIT] = 0
	L2_cache_stats_breakdown[TEXTURE_ACC_R][HIT] = 0
	L2_cache_stats_breakdown[TEXTURE_ACC_R][HIT_RESERVED] = 0
	L2_cache_stats_breakdown[TEXTURE_ACC_R][MISS] = 0
	L2_cache_stats_breakdown[TEXTURE_ACC_R][RESERVATION_FAIL] = 0
	L2_cache_stats_breakdown[TEXTURE_ACC_R][SECTOR_MISS] = 0
	L2_cache_stats_breakdown[TEXTURE_ACC_R][MSHR_HIT] = 0
	L2_cache_stats_breakdown[GLOBAL_ACC_W][HIT] = 8192
	L2_cache_stats_breakdown[GLOBAL_ACC_W][HIT_RESERVED] = 0
	L2_cache_stats_breakdown[GLOBAL_ACC_W][MISS] = 2048
	L2_cache_stats_breakdown[GLOBAL_ACC_W][RESERVATION_FAIL] = 0
	L2_cache_stats_breakdown[GLOBAL_ACC_W][SECTOR_MISS] = 6144
	L2_cache_stats_breakdown[GLOBAL_ACC_W][MSHR_HIT] = 0
	L2_cache_stats_breakdown[LOCAL_ACC_W][HIT] = 73448
	L2_cache_stats_breakdown[LOCAL_ACC_W][HIT_RESERVED] = 0
	L2_cache_stats_breakdown[LOCAL_ACC_W][MISS] = 354
	L2_cache_stats_breakdown[LOCAL_ACC_W][RESERVATION_FAIL] = 0
	L2_cache_stats_breakdown[LOCAL_ACC_W][SECTOR_MISS] = 998
	L2_cache_stats_breakdown[LOCAL_ACC_W][MSHR_HIT] = 0
	L2_cache_stats_breakdown[L1_WRBK_ACC][HIT] = 0
	L2_cache_stats_breakdown[L1_WRBK_ACC][HIT_RESERVED] = 0
	L2_cache_stats_breakdown[L1_WRBK_ACC][MISS] = 0
	L2_cache_stats_breakdown[L1_WRBK_ACC][RESERVATION_FAIL] = 0
	L2_cache_stats_breakdown[L1_WRBK_ACC][SECTOR_MISS] = 0
	L2_cache_stats_breakdown[L1_WRBK_ACC][MSHR_HIT] = 0
	L2_cache_stats_breakdown[L2_WRBK_ACC][HIT] = 0
	L2_cache_stats_breakdown[L2_WRBK_ACC][HIT_RESERVED] = 0
	L2_cache_stats_breakdown[L2_WRBK_ACC][MISS] = 0
	L2_cache_stats_breakdown[L2_WRBK_ACC][RESERVATION_FAIL] = 0
	L2_cache_stats_breakdown[L2_WRBK_ACC][SECTOR_MISS] = 0
	L2_cache_stats_breakdown[L2_WRBK_ACC][MSHR_HIT] = 0
	L2_cache_stats_breakdown[INST_ACC_R][HIT] = 0
	L2_cache_stats_breakdown[INST_ACC_R][HIT_RESERVED] = 0
	L2_cache_stats_breakdown[INST_ACC_R][MISS] = 0
	L2_cache_stats_breakdown[INST_ACC_R][RESERVATION_FAIL] = 0
	L2_cache_stats_breakdown[INST_ACC_R][SECTOR_MISS] = 0
	L2_cache_stats_breakdown[INST_ACC_R][MSHR_HIT] = 0
	L2_cache_stats_breakdown[L1_WR_ALLOC_R][HIT] = 0
	L2_cache_stats_breakdown[L1_WR_ALLOC_R][HIT_RESERVED] = 0
	L2_cache_stats_breakdown[L1_WR_ALLOC_R][MISS] = 0
	L2_cache_stats_breakdown[L1_WR_ALLOC_R][RESERVATION_FAIL] = 0
	L2_cache_stats_breakdown[L1_WR_ALLOC_R][SECTOR_MISS] = 0
	L2_cache_stats_breakdown[L1_WR_ALLOC_R][MSHR_HIT] = 0
	L2_cache_stats_breakdown[L2_WR_ALLOC_R][HIT] = 0
	L2_cache_stats_breakdown[L2_WR_ALLOC_R][HIT_RESERVED] = 0
	L2_cache_stats_breakdown[L2_WR_ALLOC_R][MISS] = 0
	L2_cache_stats_breakdown[L2_WR_ALLOC_R][RESERVATION_FAIL] = 0
	L2_cache_stats_breakdown[L2_WR_ALLOC_R][SECTOR_MISS] = 0
	L2_cache_stats_breakdown[L2_WR_ALLOC_R][MSHR_HIT] = 0
	L2_cache_stats_breakdown[GLOBAL_ACC_W][TOTAL_ACCESS] = 16384
	L2_cache_stats_breakdown[LOCAL_ACC_W][TOTAL_ACCESS] = 74800
L2_total_cache_reservation_fail_breakdown:
L2_cache_data_port_util = 0.002
L2_cache_fill_port_util = 0.000

icnt_total_pkts_mem_to_simt=91184
icnt_total_pkts_simt_to_mem=91184
LD_mem_lat_dist  0 0 0 0 0 0 0 0 0 0 0 0 0 0 0 0 0 0 0 0 0 0 0 0 0 0 0
ST_mem_lat_dist  0 0 0 0 0 0 0 0 0 0 0 0 0 0 0 0 0 0 0 0 0 0 0 0 0 0 0
----------------------------Interconnect-DETAILS--------------------------------
Req_Network_injected_packets_num = 91184
Req_Network_cycles = 548693
Req_Network_injected_packets_per_cycle =       0.1662 
Req_Network_conflicts_per_cycle =       0.0000
Req_Network_conflicts_per_cycle_util =       0.0000
Req_Bank_Level_Parallism =       1.0000
Req_Network_in_buffer_full_per_cycle =       0.0000
Req_Network_in_buffer_avg_util =       0.0000
Req_Network_out_buffer_full_per_cycle =       0.0000
Req_Network_out_buffer_avg_util =       0.0026

Reply_Network_injected_packets_num = 91184
Reply_Network_cycles = 548693
Reply_Network_injected_packets_per_cycle =        0.1662
Reply_Network_conflicts_per_cycle =        0.0000
Reply_Network_conflicts_per_cycle_util =       0.0000
Reply_Bank_Level_Parallism =       1.0000
Reply_Network_in_buffer_full_per_cycle =       0.0000
Reply_Network_in_buffer_avg_util =       0.0000
Reply_Network_out_buffer_full_per_cycle =       0.0000
Reply_Network_out_buffer_avg_util =       0.1662
----------------------------END-of-Interconnect-DETAILS-------------------------


gpgpu_simulation_time = 0 days, 0 hrs, 1 min, 41 sec (101 sec)
gpgpu_simulation_rate = 443535 (inst/sec)
gpgpu_simulation_rate = 5432 (cycle/sec)
gpgpu_silicon_slowdown = 266384x
GPGPU-Sim: synchronize waiting for inactive GPU simulation
GPGPU-Sim API: Stream Manager State
GPGPU-Sim: detected inactive GPU simulation thread

checksum=75ef46cd5f8f
Kernel Time: 101150.890625 
GPGPU-Sim: *** exit detected ***
